
---------- Begin Simulation Statistics ----------
sim_seconds                                  2.250656                       # Number of seconds simulated
sim_ticks                                2250655979000                       # Number of ticks simulated
final_tick                               2250655979000                       # Number of ticks from beginning of simulation (restored from checkpoints and never reset)
sim_freq                                 1000000000000                       # Frequency of simulated ticks
host_inst_rate                                3802556                       # Simulator instruction rate (inst/s)
host_op_rate                                  3802554                       # Simulator op (including micro ops) rate (op/s)
host_tick_rate                            95254568155                       # Simulator tick rate (ticks/s)
host_mem_usage                                 449260                       # Number of bytes of host memory used
host_seconds                                    23.63                       # Real time elapsed on the host
sim_insts                                    89845933                       # Number of instructions simulated
sim_ops                                      89845933                       # Number of ops (including micro ops) simulated
system.voltage_domain.voltage                       1                       # Voltage in Volts
system.clk_domain.clock                          1000                       # Clock period in ticks
system.mem_ctrls.bytes_read::cpu.inst       359439712                       # Number of bytes read from this memory
system.mem_ctrls.bytes_read::cpu.data       114142292                       # Number of bytes read from this memory
system.mem_ctrls.bytes_read::tsunami.ide         5256                       # Number of bytes read from this memory
system.mem_ctrls.bytes_read::total          473587260                       # Number of bytes read from this memory
system.mem_ctrls.bytes_inst_read::cpu.inst    359439712                       # Number of instructions bytes read from this memory
system.mem_ctrls.bytes_inst_read::total     359439712                       # Number of instructions bytes read from this memory
system.mem_ctrls.bytes_written::cpu.data     61702168                       # Number of bytes written to this memory
system.mem_ctrls.bytes_written::tsunami.ide      2832384                       # Number of bytes written to this memory
system.mem_ctrls.bytes_written::total        64534552                       # Number of bytes written to this memory
system.mem_ctrls.num_reads::cpu.inst         89859928                       # Number of read requests responded to by this memory
system.mem_ctrls.num_reads::cpu.data         15868120                       # Number of read requests responded to by this memory
system.mem_ctrls.num_reads::tsunami.ide           209                       # Number of read requests responded to by this memory
system.mem_ctrls.num_reads::total           105728257                       # Number of read requests responded to by this memory
system.mem_ctrls.num_writes::cpu.data         8190832                       # Number of write requests responded to by this memory
system.mem_ctrls.num_writes::tsunami.ide        44256                       # Number of write requests responded to by this memory
system.mem_ctrls.num_writes::total            8235088                       # Number of write requests responded to by this memory
system.mem_ctrls.bw_read::cpu.inst          159704422                       # Total read bandwidth from this memory (bytes/s)
system.mem_ctrls.bw_read::cpu.data           50715122                       # Total read bandwidth from this memory (bytes/s)
system.mem_ctrls.bw_read::tsunami.ide            2335                       # Total read bandwidth from this memory (bytes/s)
system.mem_ctrls.bw_read::total             210421879                       # Total read bandwidth from this memory (bytes/s)
system.mem_ctrls.bw_inst_read::cpu.inst     159704422                       # Instruction read bandwidth from this memory (bytes/s)
system.mem_ctrls.bw_inst_read::total        159704422                       # Instruction read bandwidth from this memory (bytes/s)
system.mem_ctrls.bw_write::cpu.data          27415193                       # Write bandwidth from this memory (bytes/s)
system.mem_ctrls.bw_write::tsunami.ide        1258470                       # Write bandwidth from this memory (bytes/s)
system.mem_ctrls.bw_write::total             28673663                       # Write bandwidth from this memory (bytes/s)
system.mem_ctrls.bw_total::cpu.inst         159704422                       # Total bandwidth to/from this memory (bytes/s)
system.mem_ctrls.bw_total::cpu.data          78130315                       # Total bandwidth to/from this memory (bytes/s)
system.mem_ctrls.bw_total::tsunami.ide        1260806                       # Total bandwidth to/from this memory (bytes/s)
system.mem_ctrls.bw_total::total            239095542                       # Total bandwidth to/from this memory (bytes/s)
system.mem_ctrls.readReqs                           0                       # Number of read requests accepted
system.mem_ctrls.writeReqs                          0                       # Number of write requests accepted
system.mem_ctrls.readBursts                         0                       # Number of DRAM read bursts, including those serviced by the write queue
system.mem_ctrls.writeBursts                        0                       # Number of DRAM write bursts, including those merged in the write queue
system.mem_ctrls.bytesReadDRAM                      0                       # Total number of bytes read from DRAM
system.mem_ctrls.bytesReadWrQ                       0                       # Total number of bytes read from write queue
system.mem_ctrls.bytesWritten                       0                       # Total number of bytes written to DRAM
system.mem_ctrls.bytesReadSys                       0                       # Total read bytes from the system interface side
system.mem_ctrls.bytesWrittenSys                    0                       # Total written bytes from the system interface side
system.mem_ctrls.servicedByWrQ                      0                       # Number of DRAM read bursts serviced by the write queue
system.mem_ctrls.mergedWrBursts                     0                       # Number of DRAM write bursts merged with an existing one
system.mem_ctrls.neitherReadNorWriteReqs            0                       # Number of requests that are neither read nor write
system.mem_ctrls.perBankRdBursts::0                 0                       # Per bank write bursts
system.mem_ctrls.perBankRdBursts::1                 0                       # Per bank write bursts
system.mem_ctrls.perBankRdBursts::2                 0                       # Per bank write bursts
system.mem_ctrls.perBankRdBursts::3                 0                       # Per bank write bursts
system.mem_ctrls.perBankRdBursts::4                 0                       # Per bank write bursts
system.mem_ctrls.perBankRdBursts::5                 0                       # Per bank write bursts
system.mem_ctrls.perBankRdBursts::6                 0                       # Per bank write bursts
system.mem_ctrls.perBankRdBursts::7                 0                       # Per bank write bursts
system.mem_ctrls.perBankRdBursts::8                 0                       # Per bank write bursts
system.mem_ctrls.perBankRdBursts::9                 0                       # Per bank write bursts
system.mem_ctrls.perBankRdBursts::10                0                       # Per bank write bursts
system.mem_ctrls.perBankRdBursts::11                0                       # Per bank write bursts
system.mem_ctrls.perBankRdBursts::12                0                       # Per bank write bursts
system.mem_ctrls.perBankRdBursts::13                0                       # Per bank write bursts
system.mem_ctrls.perBankRdBursts::14                0                       # Per bank write bursts
system.mem_ctrls.perBankRdBursts::15                0                       # Per bank write bursts
system.mem_ctrls.perBankWrBursts::0                 0                       # Per bank write bursts
system.mem_ctrls.perBankWrBursts::1                 0                       # Per bank write bursts
system.mem_ctrls.perBankWrBursts::2                 0                       # Per bank write bursts
system.mem_ctrls.perBankWrBursts::3                 0                       # Per bank write bursts
system.mem_ctrls.perBankWrBursts::4                 0                       # Per bank write bursts
system.mem_ctrls.perBankWrBursts::5                 0                       # Per bank write bursts
system.mem_ctrls.perBankWrBursts::6                 0                       # Per bank write bursts
system.mem_ctrls.perBankWrBursts::7                 0                       # Per bank write bursts
system.mem_ctrls.perBankWrBursts::8                 0                       # Per bank write bursts
system.mem_ctrls.perBankWrBursts::9                 0                       # Per bank write bursts
system.mem_ctrls.perBankWrBursts::10                0                       # Per bank write bursts
system.mem_ctrls.perBankWrBursts::11                0                       # Per bank write bursts
system.mem_ctrls.perBankWrBursts::12                0                       # Per bank write bursts
system.mem_ctrls.perBankWrBursts::13                0                       # Per bank write bursts
system.mem_ctrls.perBankWrBursts::14                0                       # Per bank write bursts
system.mem_ctrls.perBankWrBursts::15                0                       # Per bank write bursts
system.mem_ctrls.numRdRetry                         0                       # Number of times read queue was full causing retry
system.mem_ctrls.numWrRetry                         0                       # Number of times write queue was full causing retry
system.mem_ctrls.totGap                             0                       # Total gap between requests
system.mem_ctrls.readPktSize::0                     0                       # Read request sizes (log2)
system.mem_ctrls.readPktSize::1                     0                       # Read request sizes (log2)
system.mem_ctrls.readPktSize::2                     0                       # Read request sizes (log2)
system.mem_ctrls.readPktSize::3                     0                       # Read request sizes (log2)
system.mem_ctrls.readPktSize::4                     0                       # Read request sizes (log2)
system.mem_ctrls.readPktSize::5                     0                       # Read request sizes (log2)
system.mem_ctrls.readPktSize::6                     0                       # Read request sizes (log2)
system.mem_ctrls.writePktSize::0                    0                       # Write request sizes (log2)
system.mem_ctrls.writePktSize::1                    0                       # Write request sizes (log2)
system.mem_ctrls.writePktSize::2                    0                       # Write request sizes (log2)
system.mem_ctrls.writePktSize::3                    0                       # Write request sizes (log2)
system.mem_ctrls.writePktSize::4                    0                       # Write request sizes (log2)
system.mem_ctrls.writePktSize::5                    0                       # Write request sizes (log2)
system.mem_ctrls.writePktSize::6                    0                       # Write request sizes (log2)
system.mem_ctrls.rdQLenPdf::0                       0                       # What read queue length does an incoming req see
system.mem_ctrls.rdQLenPdf::1                       0                       # What read queue length does an incoming req see
system.mem_ctrls.rdQLenPdf::2                       0                       # What read queue length does an incoming req see
system.mem_ctrls.rdQLenPdf::3                       0                       # What read queue length does an incoming req see
system.mem_ctrls.rdQLenPdf::4                       0                       # What read queue length does an incoming req see
system.mem_ctrls.rdQLenPdf::5                       0                       # What read queue length does an incoming req see
system.mem_ctrls.rdQLenPdf::6                       0                       # What read queue length does an incoming req see
system.mem_ctrls.rdQLenPdf::7                       0                       # What read queue length does an incoming req see
system.mem_ctrls.rdQLenPdf::8                       0                       # What read queue length does an incoming req see
system.mem_ctrls.rdQLenPdf::9                       0                       # What read queue length does an incoming req see
system.mem_ctrls.rdQLenPdf::10                      0                       # What read queue length does an incoming req see
system.mem_ctrls.rdQLenPdf::11                      0                       # What read queue length does an incoming req see
system.mem_ctrls.rdQLenPdf::12                      0                       # What read queue length does an incoming req see
system.mem_ctrls.rdQLenPdf::13                      0                       # What read queue length does an incoming req see
system.mem_ctrls.rdQLenPdf::14                      0                       # What read queue length does an incoming req see
system.mem_ctrls.rdQLenPdf::15                      0                       # What read queue length does an incoming req see
system.mem_ctrls.rdQLenPdf::16                      0                       # What read queue length does an incoming req see
system.mem_ctrls.rdQLenPdf::17                      0                       # What read queue length does an incoming req see
system.mem_ctrls.rdQLenPdf::18                      0                       # What read queue length does an incoming req see
system.mem_ctrls.rdQLenPdf::19                      0                       # What read queue length does an incoming req see
system.mem_ctrls.rdQLenPdf::20                      0                       # What read queue length does an incoming req see
system.mem_ctrls.rdQLenPdf::21                      0                       # What read queue length does an incoming req see
system.mem_ctrls.rdQLenPdf::22                      0                       # What read queue length does an incoming req see
system.mem_ctrls.rdQLenPdf::23                      0                       # What read queue length does an incoming req see
system.mem_ctrls.rdQLenPdf::24                      0                       # What read queue length does an incoming req see
system.mem_ctrls.rdQLenPdf::25                      0                       # What read queue length does an incoming req see
system.mem_ctrls.rdQLenPdf::26                      0                       # What read queue length does an incoming req see
system.mem_ctrls.rdQLenPdf::27                      0                       # What read queue length does an incoming req see
system.mem_ctrls.rdQLenPdf::28                      0                       # What read queue length does an incoming req see
system.mem_ctrls.rdQLenPdf::29                      0                       # What read queue length does an incoming req see
system.mem_ctrls.rdQLenPdf::30                      0                       # What read queue length does an incoming req see
system.mem_ctrls.rdQLenPdf::31                      0                       # What read queue length does an incoming req see
system.mem_ctrls.wrQLenPdf::0                       0                       # What write queue length does an incoming req see
system.mem_ctrls.wrQLenPdf::1                       0                       # What write queue length does an incoming req see
system.mem_ctrls.wrQLenPdf::2                       0                       # What write queue length does an incoming req see
system.mem_ctrls.wrQLenPdf::3                       0                       # What write queue length does an incoming req see
system.mem_ctrls.wrQLenPdf::4                       0                       # What write queue length does an incoming req see
system.mem_ctrls.wrQLenPdf::5                       0                       # What write queue length does an incoming req see
system.mem_ctrls.wrQLenPdf::6                       0                       # What write queue length does an incoming req see
system.mem_ctrls.wrQLenPdf::7                       0                       # What write queue length does an incoming req see
system.mem_ctrls.wrQLenPdf::8                       0                       # What write queue length does an incoming req see
system.mem_ctrls.wrQLenPdf::9                       0                       # What write queue length does an incoming req see
system.mem_ctrls.wrQLenPdf::10                      0                       # What write queue length does an incoming req see
system.mem_ctrls.wrQLenPdf::11                      0                       # What write queue length does an incoming req see
system.mem_ctrls.wrQLenPdf::12                      0                       # What write queue length does an incoming req see
system.mem_ctrls.wrQLenPdf::13                      0                       # What write queue length does an incoming req see
system.mem_ctrls.wrQLenPdf::14                      0                       # What write queue length does an incoming req see
system.mem_ctrls.wrQLenPdf::15                      0                       # What write queue length does an incoming req see
system.mem_ctrls.wrQLenPdf::16                      0                       # What write queue length does an incoming req see
system.mem_ctrls.wrQLenPdf::17                      0                       # What write queue length does an incoming req see
system.mem_ctrls.wrQLenPdf::18                      0                       # What write queue length does an incoming req see
system.mem_ctrls.wrQLenPdf::19                      0                       # What write queue length does an incoming req see
system.mem_ctrls.wrQLenPdf::20                      0                       # What write queue length does an incoming req see
system.mem_ctrls.wrQLenPdf::21                      0                       # What write queue length does an incoming req see
system.mem_ctrls.wrQLenPdf::22                      0                       # What write queue length does an incoming req see
system.mem_ctrls.wrQLenPdf::23                      0                       # What write queue length does an incoming req see
system.mem_ctrls.wrQLenPdf::24                      0                       # What write queue length does an incoming req see
system.mem_ctrls.wrQLenPdf::25                      0                       # What write queue length does an incoming req see
system.mem_ctrls.wrQLenPdf::26                      0                       # What write queue length does an incoming req see
system.mem_ctrls.wrQLenPdf::27                      0                       # What write queue length does an incoming req see
system.mem_ctrls.wrQLenPdf::28                      0                       # What write queue length does an incoming req see
system.mem_ctrls.wrQLenPdf::29                      0                       # What write queue length does an incoming req see
system.mem_ctrls.wrQLenPdf::30                      0                       # What write queue length does an incoming req see
system.mem_ctrls.wrQLenPdf::31                      0                       # What write queue length does an incoming req see
system.mem_ctrls.wrQLenPdf::32                      0                       # What write queue length does an incoming req see
system.mem_ctrls.wrQLenPdf::33                      0                       # What write queue length does an incoming req see
system.mem_ctrls.wrQLenPdf::34                      0                       # What write queue length does an incoming req see
system.mem_ctrls.wrQLenPdf::35                      0                       # What write queue length does an incoming req see
system.mem_ctrls.wrQLenPdf::36                      0                       # What write queue length does an incoming req see
system.mem_ctrls.wrQLenPdf::37                      0                       # What write queue length does an incoming req see
system.mem_ctrls.wrQLenPdf::38                      0                       # What write queue length does an incoming req see
system.mem_ctrls.wrQLenPdf::39                      0                       # What write queue length does an incoming req see
system.mem_ctrls.wrQLenPdf::40                      0                       # What write queue length does an incoming req see
system.mem_ctrls.wrQLenPdf::41                      0                       # What write queue length does an incoming req see
system.mem_ctrls.wrQLenPdf::42                      0                       # What write queue length does an incoming req see
system.mem_ctrls.wrQLenPdf::43                      0                       # What write queue length does an incoming req see
system.mem_ctrls.wrQLenPdf::44                      0                       # What write queue length does an incoming req see
system.mem_ctrls.wrQLenPdf::45                      0                       # What write queue length does an incoming req see
system.mem_ctrls.wrQLenPdf::46                      0                       # What write queue length does an incoming req see
system.mem_ctrls.wrQLenPdf::47                      0                       # What write queue length does an incoming req see
system.mem_ctrls.wrQLenPdf::48                      0                       # What write queue length does an incoming req see
system.mem_ctrls.wrQLenPdf::49                      0                       # What write queue length does an incoming req see
system.mem_ctrls.wrQLenPdf::50                      0                       # What write queue length does an incoming req see
system.mem_ctrls.wrQLenPdf::51                      0                       # What write queue length does an incoming req see
system.mem_ctrls.wrQLenPdf::52                      0                       # What write queue length does an incoming req see
system.mem_ctrls.wrQLenPdf::53                      0                       # What write queue length does an incoming req see
system.mem_ctrls.wrQLenPdf::54                      0                       # What write queue length does an incoming req see
system.mem_ctrls.wrQLenPdf::55                      0                       # What write queue length does an incoming req see
system.mem_ctrls.wrQLenPdf::56                      0                       # What write queue length does an incoming req see
system.mem_ctrls.wrQLenPdf::57                      0                       # What write queue length does an incoming req see
system.mem_ctrls.wrQLenPdf::58                      0                       # What write queue length does an incoming req see
system.mem_ctrls.wrQLenPdf::59                      0                       # What write queue length does an incoming req see
system.mem_ctrls.wrQLenPdf::60                      0                       # What write queue length does an incoming req see
system.mem_ctrls.wrQLenPdf::61                      0                       # What write queue length does an incoming req see
system.mem_ctrls.wrQLenPdf::62                      0                       # What write queue length does an incoming req see
system.mem_ctrls.wrQLenPdf::63                      0                       # What write queue length does an incoming req see
system.mem_ctrls.totQLat                            0                       # Total ticks spent queuing
system.mem_ctrls.totMemAccLat                       0                       # Total ticks spent from burst creation until serviced by the DRAM
system.mem_ctrls.totBusLat                          0                       # Total ticks spent in databus transfers
system.mem_ctrls.avgQLat                          nan                       # Average queueing delay per DRAM burst
system.mem_ctrls.avgBusLat                        nan                       # Average bus latency per DRAM burst
system.mem_ctrls.avgMemAccLat                     nan                       # Average memory access latency per DRAM burst
system.mem_ctrls.avgRdBW                         0.00                       # Average DRAM read bandwidth in MiByte/s
system.mem_ctrls.avgWrBW                         0.00                       # Average achieved write bandwidth in MiByte/s
system.mem_ctrls.avgRdBWSys                      0.00                       # Average system read bandwidth in MiByte/s
system.mem_ctrls.avgWrBWSys                      0.00                       # Average system write bandwidth in MiByte/s
system.mem_ctrls.peakBW                      12800.00                       # Theoretical peak bandwidth in MiByte/s
system.mem_ctrls.busUtil                         0.00                       # Data bus utilization in percentage
system.mem_ctrls.busUtilRead                     0.00                       # Data bus utilization in percentage for reads
system.mem_ctrls.busUtilWrite                    0.00                       # Data bus utilization in percentage for writes
system.mem_ctrls.avgRdQLen                       0.00                       # Average read queue length when enqueuing
system.mem_ctrls.avgWrQLen                       0.00                       # Average write queue length when enqueuing
system.mem_ctrls.readRowHits                        0                       # Number of row buffer hits during reads
system.mem_ctrls.writeRowHits                       0                       # Number of row buffer hits during writes
system.mem_ctrls.readRowHitRate                   nan                       # Row buffer hit rate for reads
system.mem_ctrls.writeRowHitRate                  nan                       # Row buffer hit rate for writes
system.mem_ctrls.avgGap                           nan                       # Average gap between requests
system.mem_ctrls.pageHitRate                      nan                       # Row buffer hit rate, read and write combined
system.mem_ctrls.memoryStateTime::IDLE   2175500453750                       # Time in different power states
system.mem_ctrls.memoryStateTime::REF     75154300000                       # Time in different power states
system.mem_ctrls.memoryStateTime::PRE_PDN            0                       # Time in different power states
system.mem_ctrls.memoryStateTime::ACT               0                       # Time in different power states
system.mem_ctrls.memoryStateTime::ACT_PDN            0                       # Time in different power states
system.mem_ctrls.actEnergy::0                       0                       # Energy for activate commands per rank (pJ)
system.mem_ctrls.actEnergy::1                       0                       # Energy for activate commands per rank (pJ)
system.mem_ctrls.preEnergy::0                       0                       # Energy for precharge commands per rank (pJ)
system.mem_ctrls.preEnergy::1                       0                       # Energy for precharge commands per rank (pJ)
system.mem_ctrls.readEnergy::0                      0                       # Energy for read commands per rank (pJ)
system.mem_ctrls.readEnergy::1                      0                       # Energy for read commands per rank (pJ)
system.mem_ctrls.writeEnergy::0                     0                       # Energy for write commands per rank (pJ)
system.mem_ctrls.writeEnergy::1                     0                       # Energy for write commands per rank (pJ)
system.mem_ctrls.refreshEnergy::0        147001810800                       # Energy for refresh commands per rank (pJ)
system.mem_ctrls.refreshEnergy::1        147001810800                       # Energy for refresh commands per rank (pJ)
system.mem_ctrls.actBackEnergy::0         48686978925                       # Energy for active background per rank (pJ)
system.mem_ctrls.actBackEnergy::1         48686978925                       # Energy for active background per rank (pJ)
system.mem_ctrls.preBackEnergy::0        1307684967750                       # Energy for precharge background per rank (pJ)
system.mem_ctrls.preBackEnergy::1        1307684967750                       # Energy for precharge background per rank (pJ)
system.mem_ctrls.totalEnergy::0          1503373757475                       # Total energy per rank (pJ)
system.mem_ctrls.totalEnergy::1          1503373757475                       # Total energy per rank (pJ)
system.mem_ctrls.averagePower::0           667.971738                       # Core power per rank (mW)
system.mem_ctrls.averagePower::1           667.971738                       # Core power per rank (mW)
system.membus.trans_dist::ReadReq           105486640                       # Transaction distribution
system.membus.trans_dist::ReadResp          105736171                       # Transaction distribution
system.membus.trans_dist::WriteReq            7997532                       # Transaction distribution
system.membus.trans_dist::WriteResp           7997532                       # Transaction distribution
system.membus.trans_dist::LoadLockedReq        249531                       # Transaction distribution
system.membus.trans_dist::StoreCondReq         248346                       # Transaction distribution
system.membus.trans_dist::StoreCondResp        248346                       # Transaction distribution
system.membus.pkt_count_system.iobridge.master::system.mem_ctrls.port        88930                       # Packet count per connected master and slave (bytes)
system.membus.pkt_count_system.iobridge.master::total        88930                       # Packet count per connected master and slave (bytes)
system.membus.pkt_count_system.cpu.icache_port::system.mem_ctrls.port    179719856                       # Packet count per connected master and slave (bytes)
system.membus.pkt_count_system.cpu.icache_port::total    179719856                       # Packet count per connected master and slave (bytes)
system.membus.pkt_count_system.cpu.dcache_port::system.bridge.slave        37408                       # Packet count per connected master and slave (bytes)
system.membus.pkt_count_system.cpu.dcache_port::system.mem_ctrls.port     48117904                       # Packet count per connected master and slave (bytes)
system.membus.pkt_count_system.cpu.dcache_port::total     48155312                       # Packet count per connected master and slave (bytes)
system.membus.pkt_count::total              227964098                       # Packet count per connected master and slave (bytes)
system.membus.pkt_size_system.iobridge.master::system.mem_ctrls.port      2837640                       # Cumulative packet size per connected master and slave (bytes)
system.membus.pkt_size_system.iobridge.master::total      2837640                       # Cumulative packet size per connected master and slave (bytes)
system.membus.pkt_size_system.cpu.icache_port::system.mem_ctrls.port    359439712                       # Cumulative packet size per connected master and slave (bytes)
system.membus.pkt_size_system.cpu.icache_port::total    359439712                       # Cumulative packet size per connected master and slave (bytes)
system.membus.pkt_size_system.cpu.dcache_port::system.bridge.slave        49393                       # Cumulative packet size per connected master and slave (bytes)
system.membus.pkt_size_system.cpu.dcache_port::system.mem_ctrls.port    175844460                       # Cumulative packet size per connected master and slave (bytes)
system.membus.pkt_size_system.cpu.dcache_port::total    175893853                       # Cumulative packet size per connected master and slave (bytes)
system.membus.pkt_size::total               538171205                       # Cumulative packet size per connected master and slave (bytes)
system.membus.snoops                                0                       # Total snoops (count)
system.membus.snoop_fanout::samples         113963345                       # Request fanout histogram
system.membus.snoop_fanout::mean             0.788889                       # Request fanout histogram
system.membus.snoop_fanout::stdev            0.408097                       # Request fanout histogram
system.membus.snoop_fanout::underflows              0      0.00%      0.00% # Request fanout histogram
system.membus.snoop_fanout::0                24058952     21.11%     21.11% # Request fanout histogram
system.membus.snoop_fanout::1                89904393     78.89%    100.00% # Request fanout histogram
system.membus.snoop_fanout::overflows               0      0.00%    100.00% # Request fanout histogram
system.membus.snoop_fanout::min_value               0                       # Request fanout histogram
system.membus.snoop_fanout::max_value               1                       # Request fanout histogram
system.membus.snoop_fanout::total           113963345                       # Request fanout histogram
system.disk0.dma_read_full_pages                    0                       # Number of full page size DMA reads (not PRD).
system.disk0.dma_read_bytes                      4096                       # Number of bytes transfered via DMA reads (not PRD).
system.disk0.dma_read_txs                           1                       # Number of DMA read transactions (not PRD).
system.disk0.dma_write_full_pages                 326                       # Number of full page size DMA writes.
system.disk0.dma_write_bytes                  2824192                       # Number of bytes transfered via DMA writes.
system.disk0.dma_write_txs                        365                       # Number of DMA write transactions.
system.disk2.dma_read_full_pages                    0                       # Number of full page size DMA reads (not PRD).
system.disk2.dma_read_bytes                         0                       # Number of bytes transfered via DMA reads (not PRD).
system.disk2.dma_read_txs                           0                       # Number of DMA read transactions (not PRD).
system.disk2.dma_write_full_pages                   1                       # Number of full page size DMA writes.
system.disk2.dma_write_bytes                     8192                       # Number of bytes transfered via DMA writes.
system.disk2.dma_write_txs                          1                       # Number of DMA write transactions.
system.cpu_voltage_domain.voltage                   1                       # Voltage in Volts
system.cpu_clk_domain.clock                       500                       # Clock period in ticks
system.cpu.dtb.fetch_hits                           0                       # ITB hits
system.cpu.dtb.fetch_misses                         0                       # ITB misses
system.cpu.dtb.fetch_acv                            0                       # ITB acv
system.cpu.dtb.fetch_accesses                       0                       # ITB accesses
system.cpu.dtb.read_hits                     15846282                       # DTB read hits
system.cpu.dtb.read_misses                      12421                       # DTB read misses
system.cpu.dtb.read_acv                            98                       # DTB read access violations
system.cpu.dtb.read_accesses                   847072                       # DTB read accesses
system.cpu.dtb.write_hits                     8191623                       # DTB write hits
system.cpu.dtb.write_misses                      1307                       # DTB write misses
system.cpu.dtb.write_acv                          169                       # DTB write access violations
system.cpu.dtb.write_accesses                  339318                       # DTB write accesses
system.cpu.dtb.data_hits                     24037905                       # DTB hits
system.cpu.dtb.data_misses                      13728                       # DTB misses
system.cpu.dtb.data_acv                           267                       # DTB access violations
system.cpu.dtb.data_accesses                  1186390                       # DTB accesses
system.cpu.itb.fetch_hits                     5775925                       # ITB hits
system.cpu.itb.fetch_misses                      6145                       # ITB misses
system.cpu.itb.fetch_acv                            1                       # ITB acv
system.cpu.itb.fetch_accesses                 5782070                       # ITB accesses
system.cpu.itb.read_hits                            0                       # DTB read hits
system.cpu.itb.read_misses                          0                       # DTB read misses
system.cpu.itb.read_acv                             0                       # DTB read access violations
system.cpu.itb.read_accesses                        0                       # DTB read accesses
system.cpu.itb.write_hits                           0                       # DTB write hits
system.cpu.itb.write_misses                         0                       # DTB write misses
system.cpu.itb.write_acv                            0                       # DTB write access violations
system.cpu.itb.write_accesses                       0                       # DTB write accesses
system.cpu.itb.data_hits                            0                       # DTB hits
system.cpu.itb.data_misses                          0                       # DTB misses
system.cpu.itb.data_acv                             0                       # DTB access violations
system.cpu.itb.data_accesses                        0                       # DTB accesses
system.cpu.numCycles                       4501319078                       # number of cpu cycles simulated
system.cpu.numWorkItemsStarted                      0                       # number of work items this cpu started
system.cpu.numWorkItemsCompleted                    0                       # number of work items this cpu completed
system.cpu.committedInsts                    89845933                       # Number of instructions committed
system.cpu.committedOps                      89845933                       # Number of ops (including micro ops) committed
system.cpu.num_int_alu_accesses              86924740                       # Number of integer alu accesses
system.cpu.num_fp_alu_accesses                 400897                       # Number of float alu accesses
system.cpu.num_func_calls                     2784944                       # number of times a function call or return occured
system.cpu.num_conditional_control_insts     11322788                       # number of instructions that are conditional controls
system.cpu.num_int_insts                     86924740                       # number of integer instructions
system.cpu.num_fp_insts                        400897                       # number of float instructions
system.cpu.num_int_register_reads           119205236                       # number of times the integer registers were read
system.cpu.num_int_register_writes           66229686                       # number of times the integer registers were written
system.cpu.num_fp_register_reads               181317                       # number of times the floating registers were read
system.cpu.num_fp_register_writes              184357                       # number of times the floating registers were written
system.cpu.num_mem_refs                      24097770                       # number of memory refs
system.cpu.num_load_insts                    15888553                       # Number of load instructions
system.cpu.num_store_insts                    8209217                       # Number of store instructions
system.cpu.num_idle_cycles               4411459951.942597                       # Number of idle cycles
system.cpu.num_busy_cycles               89859126.057402                       # Number of busy cycles
system.cpu.not_idle_fraction                 0.019963                       # Percentage of non-idle cycles
system.cpu.idle_fraction                     0.980037                       # Percentage of idle cycles
system.cpu.Branches                          14707342                       # Number of branches fetched
system.cpu.op_class::No_OpClass               1598971      1.78%      1.78% # Class of executed instruction
system.cpu.op_class::IntAlu                  62381302     69.42%     71.20% # Class of executed instruction
system.cpu.op_class::IntMult                   156911      0.17%     71.37% # Class of executed instruction
system.cpu.op_class::IntDiv                         0      0.00%     71.37% # Class of executed instruction
system.cpu.op_class::FloatAdd                   85209      0.09%     71.47% # Class of executed instruction
system.cpu.op_class::FloatCmp                       0      0.00%     71.47% # Class of executed instruction
system.cpu.op_class::FloatCvt                       0      0.00%     71.47% # Class of executed instruction
system.cpu.op_class::FloatMult                      0      0.00%     71.47% # Class of executed instruction
system.cpu.op_class::FloatDiv                    4191      0.00%     71.47% # Class of executed instruction
system.cpu.op_class::FloatSqrt                      0      0.00%     71.47% # Class of executed instruction
system.cpu.op_class::SimdAdd                        0      0.00%     71.47% # Class of executed instruction
system.cpu.op_class::SimdAddAcc                     0      0.00%     71.47% # Class of executed instruction
system.cpu.op_class::SimdAlu                        0      0.00%     71.47% # Class of executed instruction
system.cpu.op_class::SimdCmp                        0      0.00%     71.47% # Class of executed instruction
system.cpu.op_class::SimdCvt                        0      0.00%     71.47% # Class of executed instruction
system.cpu.op_class::SimdMisc                       0      0.00%     71.47% # Class of executed instruction
system.cpu.op_class::SimdMult                       0      0.00%     71.47% # Class of executed instruction
system.cpu.op_class::SimdMultAcc                    0      0.00%     71.47% # Class of executed instruction
system.cpu.op_class::SimdShift                      0      0.00%     71.47% # Class of executed instruction
system.cpu.op_class::SimdShiftAcc                   0      0.00%     71.47% # Class of executed instruction
system.cpu.op_class::SimdSqrt                       0      0.00%     71.47% # Class of executed instruction
system.cpu.op_class::SimdFloatAdd                   0      0.00%     71.47% # Class of executed instruction
system.cpu.op_class::SimdFloatAlu                   0      0.00%     71.47% # Class of executed instruction
system.cpu.op_class::SimdFloatCmp                   0      0.00%     71.47% # Class of executed instruction
system.cpu.op_class::SimdFloatCvt                   0      0.00%     71.47% # Class of executed instruction
system.cpu.op_class::SimdFloatDiv                   0      0.00%     71.47% # Class of executed instruction
system.cpu.op_class::SimdFloatMisc                  0      0.00%     71.47% # Class of executed instruction
system.cpu.op_class::SimdFloatMult                  0      0.00%     71.47% # Class of executed instruction
system.cpu.op_class::SimdFloatMultAcc               0      0.00%     71.47% # Class of executed instruction
system.cpu.op_class::SimdFloatSqrt                  0      0.00%     71.47% # Class of executed instruction
system.cpu.op_class::MemRead                 16278703     18.12%     89.59% # Class of executed instruction
system.cpu.op_class::MemWrite                 8282935      9.22%     98.81% # Class of executed instruction
system.cpu.op_class::IprAccess                1071706      1.19%    100.00% # Class of executed instruction
system.cpu.op_class::InstPrefetch                   0      0.00%    100.00% # Class of executed instruction
system.cpu.op_class::total                   89859928                       # Class of executed instruction
system.cpu.kern.inst.arm                            0                       # number of arm instructions executed
system.cpu.kern.inst.quiesce                     7119                       # number of quiesce instructions executed
system.cpu.kern.inst.hwrei                     234122                       # number of hwrei instructions executed
system.cpu.kern.ipl_count::0                    82019     40.41%     40.41% # number of times we switched to this ipl
system.cpu.kern.ipl_count::21                     334      0.16%     40.58% # number of times we switched to this ipl
system.cpu.kern.ipl_count::22                    2298      1.13%     41.71% # number of times we switched to this ipl
system.cpu.kern.ipl_count::31                  118297     58.29%    100.00% # number of times we switched to this ipl
system.cpu.kern.ipl_count::total               202948                       # number of times we switched to this ipl
system.cpu.kern.ipl_good::0                     80482     49.20%     49.20% # number of times we switched to this ipl from a different ipl
system.cpu.kern.ipl_good::21                      334      0.20%     49.40% # number of times we switched to this ipl from a different ipl
system.cpu.kern.ipl_good::22                     2298      1.40%     50.80% # number of times we switched to this ipl from a different ipl
system.cpu.kern.ipl_good::31                    80482     49.20%    100.00% # number of times we switched to this ipl from a different ipl
system.cpu.kern.ipl_good::total                163596                       # number of times we switched to this ipl from a different ipl
system.cpu.kern.ipl_ticks::0             2230402037000     99.10%     99.10% # number of cycles we spent at this ipl
system.cpu.kern.ipl_ticks::21                26036000      0.00%     99.10% # number of cycles we spent at this ipl
system.cpu.kern.ipl_ticks::22               112602000      0.01%     99.11% # number of cycles we spent at this ipl
system.cpu.kern.ipl_ticks::31             20115028000      0.89%    100.00% # number of cycles we spent at this ipl
system.cpu.kern.ipl_ticks::total         2250655703000                       # number of cycles we spent at this ipl
system.cpu.kern.ipl_used::0                  0.981260                       # fraction of swpipl calls that actually changed the ipl
system.cpu.kern.ipl_used::21                        1                       # fraction of swpipl calls that actually changed the ipl
system.cpu.kern.ipl_used::22                        1                       # fraction of swpipl calls that actually changed the ipl
system.cpu.kern.ipl_used::31                 0.680338                       # fraction of swpipl calls that actually changed the ipl
system.cpu.kern.ipl_used::total              0.806098                       # fraction of swpipl calls that actually changed the ipl
system.cpu.kern.syscall::2                          8      2.17%      2.17% # number of syscalls executed
system.cpu.kern.syscall::3                         33      8.94%     11.11% # number of syscalls executed
system.cpu.kern.syscall::4                          7      1.90%     13.01% # number of syscalls executed
system.cpu.kern.syscall::6                         45     12.20%     25.20% # number of syscalls executed
system.cpu.kern.syscall::12                         1      0.27%     25.47% # number of syscalls executed
system.cpu.kern.syscall::15                         1      0.27%     25.75% # number of syscalls executed
system.cpu.kern.syscall::17                        18      4.88%     30.62% # number of syscalls executed
system.cpu.kern.syscall::19                        11      2.98%     33.60% # number of syscalls executed
system.cpu.kern.syscall::20                         6      1.63%     35.23% # number of syscalls executed
system.cpu.kern.syscall::23                         4      1.08%     36.31% # number of syscalls executed
system.cpu.kern.syscall::24                         8      2.17%     38.48% # number of syscalls executed
system.cpu.kern.syscall::33                        12      3.25%     41.73% # number of syscalls executed
system.cpu.kern.syscall::41                         2      0.54%     42.28% # number of syscalls executed
system.cpu.kern.syscall::45                        62     16.80%     59.08% # number of syscalls executed
system.cpu.kern.syscall::47                         8      2.17%     61.25% # number of syscalls executed
system.cpu.kern.syscall::48                        10      2.71%     63.96% # number of syscalls executed
system.cpu.kern.syscall::54                        12      3.25%     67.21% # number of syscalls executed
system.cpu.kern.syscall::58                         2      0.54%     67.75% # number of syscalls executed
system.cpu.kern.syscall::59                         7      1.90%     69.65% # number of syscalls executed
system.cpu.kern.syscall::71                        63     17.07%     86.72% # number of syscalls executed
system.cpu.kern.syscall::73                         5      1.36%     88.08% # number of syscalls executed
system.cpu.kern.syscall::74                        18      4.88%     92.95% # number of syscalls executed
system.cpu.kern.syscall::87                         2      0.54%     93.50% # number of syscalls executed
system.cpu.kern.syscall::90                         3      0.81%     94.31% # number of syscalls executed
system.cpu.kern.syscall::92                         9      2.44%     96.75% # number of syscalls executed
system.cpu.kern.syscall::97                         2      0.54%     97.29% # number of syscalls executed
system.cpu.kern.syscall::98                         2      0.54%     97.83% # number of syscalls executed
system.cpu.kern.syscall::132                        4      1.08%     98.92% # number of syscalls executed
system.cpu.kern.syscall::144                        2      0.54%     99.46% # number of syscalls executed
system.cpu.kern.syscall::147                        2      0.54%    100.00% # number of syscalls executed
system.cpu.kern.syscall::total                    369                       # number of syscalls executed
system.cpu.kern.callpal::cserve                     1      0.00%      0.00% # number of callpals executed
system.cpu.kern.callpal::wrmces                     1      0.00%      0.00% # number of callpals executed
system.cpu.kern.callpal::wrfen                      1      0.00%      0.00% # number of callpals executed
system.cpu.kern.callpal::wrvptptr                   1      0.00%      0.00% # number of callpals executed
system.cpu.kern.callpal::swpctx                  4606      2.18%      2.18% # number of callpals executed
system.cpu.kern.callpal::tbi                       65      0.03%      2.21% # number of callpals executed
system.cpu.kern.callpal::wrent                      7      0.00%      2.22% # number of callpals executed
system.cpu.kern.callpal::swpipl                194196     91.88%     94.10% # number of callpals executed
system.cpu.kern.callpal::rdps                    5528      2.62%     96.72% # number of callpals executed
system.cpu.kern.callpal::wrkgp                      1      0.00%     96.72% # number of callpals executed
system.cpu.kern.callpal::wrusp                      8      0.00%     96.72% # number of callpals executed
system.cpu.kern.callpal::rdusp                     10      0.00%     96.72% # number of callpals executed
system.cpu.kern.callpal::whami                      2      0.00%     96.73% # number of callpals executed
system.cpu.kern.callpal::rti                     6119      2.90%     99.62% # number of callpals executed
system.cpu.kern.callpal::callsys                  562      0.27%     99.89% # number of callpals executed
system.cpu.kern.callpal::imb                      239      0.11%    100.00% # number of callpals executed
system.cpu.kern.callpal::total                 211347                       # number of callpals executed
system.cpu.kern.mode_switch::kernel              6811                       # number of protection mode switches
system.cpu.kern.mode_switch::user                1963                       # number of protection mode switches
system.cpu.kern.mode_switch::idle                2420                       # number of protection mode switches
system.cpu.kern.mode_good::kernel                2080                      
system.cpu.kern.mode_good::user                  1963                      
system.cpu.kern.mode_good::idle                   117                      
system.cpu.kern.mode_switch_good::kernel     0.305388                       # fraction of useful protection mode switches
system.cpu.kern.mode_switch_good::user              1                       # fraction of useful protection mode switches
system.cpu.kern.mode_switch_good::idle       0.048347                       # fraction of useful protection mode switches
system.cpu.kern.mode_switch_good::total      0.371628                       # fraction of useful protection mode switches
system.cpu.kern.mode_ticks::kernel        59402597500      2.64%      2.64% # number of ticks spent at the given mode
system.cpu.kern.mode_ticks::user           1744584500      0.08%      2.72% # number of ticks spent at the given mode
system.cpu.kern.mode_ticks::idle         2189508520000     97.28%    100.00% # number of ticks spent at the given mode
system.cpu.kern.swap_context                     4607                       # number of times the context was actually changed
system.tsunami.ethernet.descDMAReads                0                       # Number of descriptors the device read w/ DMA
system.tsunami.ethernet.descDMAWrites               0                       # Number of descriptors the device wrote w/ DMA
system.tsunami.ethernet.descDmaReadBytes            0                       # number of descriptor bytes read w/ DMA
system.tsunami.ethernet.descDmaWriteBytes            0                       # number of descriptor bytes write w/ DMA
system.tsunami.ethernet.postedSwi                   0                       # number of software interrupts posted to CPU
system.tsunami.ethernet.coalescedSwi              nan                       # average number of Swi's coalesced into each post
system.tsunami.ethernet.totalSwi                    0                       # total number of Swi written to ISR
system.tsunami.ethernet.postedRxIdle                0                       # number of rxIdle interrupts posted to CPU
system.tsunami.ethernet.coalescedRxIdle           nan                       # average number of RxIdle's coalesced into each post
system.tsunami.ethernet.totalRxIdle                 0                       # total number of RxIdle written to ISR
system.tsunami.ethernet.postedRxOk                  0                       # number of RxOk interrupts posted to CPU
system.tsunami.ethernet.coalescedRxOk             nan                       # average number of RxOk's coalesced into each post
system.tsunami.ethernet.totalRxOk                   0                       # total number of RxOk written to ISR
system.tsunami.ethernet.postedRxDesc                0                       # number of RxDesc interrupts posted to CPU
system.tsunami.ethernet.coalescedRxDesc           nan                       # average number of RxDesc's coalesced into each post
system.tsunami.ethernet.totalRxDesc                 0                       # total number of RxDesc written to ISR
system.tsunami.ethernet.postedTxOk                  0                       # number of TxOk interrupts posted to CPU
system.tsunami.ethernet.coalescedTxOk             nan                       # average number of TxOk's coalesced into each post
system.tsunami.ethernet.totalTxOk                   0                       # total number of TxOk written to ISR
system.tsunami.ethernet.postedTxIdle                0                       # number of TxIdle interrupts posted to CPU
system.tsunami.ethernet.coalescedTxIdle           nan                       # average number of TxIdle's coalesced into each post
system.tsunami.ethernet.totalTxIdle                 0                       # total number of TxIdle written to ISR
system.tsunami.ethernet.postedTxDesc                0                       # number of TxDesc interrupts posted to CPU
system.tsunami.ethernet.coalescedTxDesc           nan                       # average number of TxDesc's coalesced into each post
system.tsunami.ethernet.totalTxDesc                 0                       # total number of TxDesc written to ISR
system.tsunami.ethernet.postedRxOrn                 0                       # number of RxOrn posted to CPU
system.tsunami.ethernet.coalescedRxOrn            nan                       # average number of RxOrn's coalesced into each post
system.tsunami.ethernet.totalRxOrn                  0                       # total number of RxOrn written to ISR
system.tsunami.ethernet.coalescedTotal            nan                       # average number of interrupts coalesced into each post
system.tsunami.ethernet.postedInterrupts            0                       # number of posts to CPU
system.tsunami.ethernet.droppedPackets              0                       # number of packets dropped
system.iobus.trans_dist::ReadReq                 8123                       # Transaction distribution
system.iobus.trans_dist::ReadResp                8123                       # Transaction distribution
system.iobus.trans_dist::WriteReq               55046                       # Transaction distribution
system.iobus.trans_dist::WriteResp              55046                       # Transaction distribution
system.iobus.pkt_count_system.bridge.master::system.tsunami.cchip.pio         5674                       # Packet count per connected master and slave (bytes)
system.iobus.pkt_count_system.bridge.master::system.tsunami.pchip.pio          296                       # Packet count per connected master and slave (bytes)
system.iobus.pkt_count_system.bridge.master::system.tsunami.fake_sm_chip.pio           20                       # Packet count per connected master and slave (bytes)
system.iobus.pkt_count_system.bridge.master::system.tsunami.fake_uart4.pio           20                       # Packet count per connected master and slave (bytes)
system.iobus.pkt_count_system.bridge.master::system.tsunami.fake_ata0.pio           22                       # Packet count per connected master and slave (bytes)
system.iobus.pkt_count_system.bridge.master::system.tsunami.fake_ata1.pio           22                       # Packet count per connected master and slave (bytes)
system.iobus.pkt_count_system.bridge.master::system.tsunami.io.pio         1968                       # Packet count per connected master and slave (bytes)
system.iobus.pkt_count_system.bridge.master::system.tsunami.uart.pio        20936                       # Packet count per connected master and slave (bytes)
system.iobus.pkt_count_system.bridge.master::system.tsunami.backdoor.pio         1906                       # Packet count per connected master and slave (bytes)
system.iobus.pkt_count_system.bridge.master::system.tsunami.ide.pio         5904                       # Packet count per connected master and slave (bytes)
system.iobus.pkt_count_system.bridge.master::system.tsunami.ide-pciconf          284                       # Packet count per connected master and slave (bytes)
system.iobus.pkt_count_system.bridge.master::system.tsunami.ethernet.pio          100                       # Packet count per connected master and slave (bytes)
system.iobus.pkt_count_system.bridge.master::system.tsunami.ethernet-pciconf          196                       # Packet count per connected master and slave (bytes)
system.iobus.pkt_count_system.bridge.master::system.tsunami.pciconfig.pio           60                       # Packet count per connected master and slave (bytes)
system.iobus.pkt_count_system.bridge.master::total        37408                       # Packet count per connected master and slave (bytes)
system.iobus.pkt_count_system.tsunami.ide.dma::system.iobridge.slave        88930                       # Packet count per connected master and slave (bytes)
system.iobus.pkt_count_system.tsunami.ide.dma::total        88930                       # Packet count per connected master and slave (bytes)
system.iobus.pkt_count::total                  126338                       # Packet count per connected master and slave (bytes)
system.iobus.pkt_size_system.bridge.master::system.tsunami.cchip.pio        22696                       # Cumulative packet size per connected master and slave (bytes)
system.iobus.pkt_size_system.bridge.master::system.tsunami.pchip.pio         1184                       # Cumulative packet size per connected master and slave (bytes)
system.iobus.pkt_size_system.bridge.master::system.tsunami.fake_sm_chip.pio           10                       # Cumulative packet size per connected master and slave (bytes)
system.iobus.pkt_size_system.bridge.master::system.tsunami.fake_uart4.pio           10                       # Cumulative packet size per connected master and slave (bytes)
system.iobus.pkt_size_system.bridge.master::system.tsunami.fake_ata0.pio           11                       # Cumulative packet size per connected master and slave (bytes)
system.iobus.pkt_size_system.bridge.master::system.tsunami.fake_ata1.pio           11                       # Cumulative packet size per connected master and slave (bytes)
system.iobus.pkt_size_system.bridge.master::system.tsunami.io.pio         2622                       # Cumulative packet size per connected master and slave (bytes)
system.iobus.pkt_size_system.bridge.master::system.tsunami.uart.pio        10468                       # Cumulative packet size per connected master and slave (bytes)
system.iobus.pkt_size_system.bridge.master::system.tsunami.backdoor.pio         7604                       # Cumulative packet size per connected master and slave (bytes)
system.iobus.pkt_size_system.bridge.master::system.tsunami.ide.pio         3746                       # Cumulative packet size per connected master and slave (bytes)
system.iobus.pkt_size_system.bridge.master::system.tsunami.ide-pciconf          400                       # Cumulative packet size per connected master and slave (bytes)
system.iobus.pkt_size_system.bridge.master::system.tsunami.ethernet.pio          200                       # Cumulative packet size per connected master and slave (bytes)
system.iobus.pkt_size_system.bridge.master::system.tsunami.ethernet-pciconf          311                       # Cumulative packet size per connected master and slave (bytes)
system.iobus.pkt_size_system.bridge.master::system.tsunami.pciconfig.pio          120                       # Cumulative packet size per connected master and slave (bytes)
system.iobus.pkt_size_system.bridge.master::total        49393                       # Cumulative packet size per connected master and slave (bytes)
system.iobus.pkt_size_system.tsunami.ide.dma::system.iobridge.slave      2837640                       # Cumulative packet size per connected master and slave (bytes)
system.iobus.pkt_size_system.tsunami.ide.dma::total      2837640                       # Cumulative packet size per connected master and slave (bytes)
system.iobus.pkt_size::total                  2887033                       # Cumulative packet size per connected master and slave (bytes)

---------- End Simulation Statistics   ----------

---------- Begin Simulation Statistics ----------
sim_seconds                                  0.004130                       # Number of seconds simulated
sim_ticks                                  4129503500                       # Number of ticks simulated
final_tick                               2254785482500                       # Number of ticks from beginning of simulation (restored from checkpoints and never reset)
sim_freq                                 1000000000000                       # Frequency of simulated ticks
host_inst_rate                               43044961                       # Simulator instruction rate (inst/s)
host_op_rate                                 43044717                       # Simulator op (including micro ops) rate (op/s)
host_tick_rate                             1814304712                       # Simulator tick rate (ticks/s)
host_mem_usage                                 451308                       # Number of bytes of host memory used
host_seconds                                     2.28                       # Real time elapsed on the host
sim_insts                                    97972726                       # Number of instructions simulated
sim_ops                                      97972726                       # Number of ops (including micro ops) simulated
system.voltage_domain.voltage                       1                       # Voltage in Volts
system.clk_domain.clock                          1000                       # Clock period in ticks
system.mem_ctrls.bytes_read::cpu.inst        32521668                       # Number of bytes read from this memory
system.mem_ctrls.bytes_read::cpu.data        12140582                       # Number of bytes read from this memory
system.mem_ctrls.bytes_read::tsunami.ide          272                       # Number of bytes read from this memory
system.mem_ctrls.bytes_read::total           44662522                       # Number of bytes read from this memory
system.mem_ctrls.bytes_inst_read::cpu.inst     32521668                       # Number of instructions bytes read from this memory
system.mem_ctrls.bytes_inst_read::total      32521668                       # Number of instructions bytes read from this memory
system.mem_ctrls.bytes_written::cpu.data      7350116                       # Number of bytes written to this memory
system.mem_ctrls.bytes_written::tsunami.ide       847872                       # Number of bytes written to this memory
system.mem_ctrls.bytes_written::total         8197988                       # Number of bytes written to this memory
system.mem_ctrls.num_reads::cpu.inst          8130417                       # Number of read requests responded to by this memory
system.mem_ctrls.num_reads::cpu.data          1602317                       # Number of read requests responded to by this memory
system.mem_ctrls.num_reads::tsunami.ide            34                       # Number of read requests responded to by this memory
system.mem_ctrls.num_reads::total             9732768                       # Number of read requests responded to by this memory
system.mem_ctrls.num_writes::cpu.data          954903                       # Number of write requests responded to by this memory
system.mem_ctrls.num_writes::tsunami.ide        13248                       # Number of write requests responded to by this memory
system.mem_ctrls.num_writes::total             968151                       # Number of write requests responded to by this memory
system.mem_ctrls.bw_read::cpu.inst         7875442653                       # Total read bandwidth from this memory (bytes/s)
system.mem_ctrls.bw_read::cpu.data         2939961669                       # Total read bandwidth from this memory (bytes/s)
system.mem_ctrls.bw_read::tsunami.ide           65867                       # Total read bandwidth from this memory (bytes/s)
system.mem_ctrls.bw_read::total           10815470189                       # Total read bandwidth from this memory (bytes/s)
system.mem_ctrls.bw_inst_read::cpu.inst    7875442653                       # Instruction read bandwidth from this memory (bytes/s)
system.mem_ctrls.bw_inst_read::total       7875442653                       # Instruction read bandwidth from this memory (bytes/s)
system.mem_ctrls.bw_write::cpu.data        1779903080                       # Write bandwidth from this memory (bytes/s)
system.mem_ctrls.bw_write::tsunami.ide      205320567                       # Write bandwidth from this memory (bytes/s)
system.mem_ctrls.bw_write::total           1985223647                       # Write bandwidth from this memory (bytes/s)
system.mem_ctrls.bw_total::cpu.inst        7875442653                       # Total bandwidth to/from this memory (bytes/s)
system.mem_ctrls.bw_total::cpu.data        4719864749                       # Total bandwidth to/from this memory (bytes/s)
system.mem_ctrls.bw_total::tsunami.ide      205386434                       # Total bandwidth to/from this memory (bytes/s)
system.mem_ctrls.bw_total::total          12800693836                       # Total bandwidth to/from this memory (bytes/s)
system.mem_ctrls.readReqs                           0                       # Number of read requests accepted
system.mem_ctrls.writeReqs                          0                       # Number of write requests accepted
system.mem_ctrls.readBursts                         0                       # Number of DRAM read bursts, including those serviced by the write queue
system.mem_ctrls.writeBursts                        0                       # Number of DRAM write bursts, including those merged in the write queue
system.mem_ctrls.bytesReadDRAM                      0                       # Total number of bytes read from DRAM
system.mem_ctrls.bytesReadWrQ                       0                       # Total number of bytes read from write queue
system.mem_ctrls.bytesWritten                       0                       # Total number of bytes written to DRAM
system.mem_ctrls.bytesReadSys                       0                       # Total read bytes from the system interface side
system.mem_ctrls.bytesWrittenSys                    0                       # Total written bytes from the system interface side
system.mem_ctrls.servicedByWrQ                      0                       # Number of DRAM read bursts serviced by the write queue
system.mem_ctrls.mergedWrBursts                     0                       # Number of DRAM write bursts merged with an existing one
system.mem_ctrls.neitherReadNorWriteReqs            0                       # Number of requests that are neither read nor write
system.mem_ctrls.perBankRdBursts::0                 0                       # Per bank write bursts
system.mem_ctrls.perBankRdBursts::1                 0                       # Per bank write bursts
system.mem_ctrls.perBankRdBursts::2                 0                       # Per bank write bursts
system.mem_ctrls.perBankRdBursts::3                 0                       # Per bank write bursts
system.mem_ctrls.perBankRdBursts::4                 0                       # Per bank write bursts
system.mem_ctrls.perBankRdBursts::5                 0                       # Per bank write bursts
system.mem_ctrls.perBankRdBursts::6                 0                       # Per bank write bursts
system.mem_ctrls.perBankRdBursts::7                 0                       # Per bank write bursts
system.mem_ctrls.perBankRdBursts::8                 0                       # Per bank write bursts
system.mem_ctrls.perBankRdBursts::9                 0                       # Per bank write bursts
system.mem_ctrls.perBankRdBursts::10                0                       # Per bank write bursts
system.mem_ctrls.perBankRdBursts::11                0                       # Per bank write bursts
system.mem_ctrls.perBankRdBursts::12                0                       # Per bank write bursts
system.mem_ctrls.perBankRdBursts::13                0                       # Per bank write bursts
system.mem_ctrls.perBankRdBursts::14                0                       # Per bank write bursts
system.mem_ctrls.perBankRdBursts::15                0                       # Per bank write bursts
system.mem_ctrls.perBankWrBursts::0                 0                       # Per bank write bursts
system.mem_ctrls.perBankWrBursts::1                 0                       # Per bank write bursts
system.mem_ctrls.perBankWrBursts::2                 0                       # Per bank write bursts
system.mem_ctrls.perBankWrBursts::3                 0                       # Per bank write bursts
system.mem_ctrls.perBankWrBursts::4                 0                       # Per bank write bursts
system.mem_ctrls.perBankWrBursts::5                 0                       # Per bank write bursts
system.mem_ctrls.perBankWrBursts::6                 0                       # Per bank write bursts
system.mem_ctrls.perBankWrBursts::7                 0                       # Per bank write bursts
system.mem_ctrls.perBankWrBursts::8                 0                       # Per bank write bursts
system.mem_ctrls.perBankWrBursts::9                 0                       # Per bank write bursts
system.mem_ctrls.perBankWrBursts::10                0                       # Per bank write bursts
system.mem_ctrls.perBankWrBursts::11                0                       # Per bank write bursts
system.mem_ctrls.perBankWrBursts::12                0                       # Per bank write bursts
system.mem_ctrls.perBankWrBursts::13                0                       # Per bank write bursts
system.mem_ctrls.perBankWrBursts::14                0                       # Per bank write bursts
system.mem_ctrls.perBankWrBursts::15                0                       # Per bank write bursts
system.mem_ctrls.numRdRetry                         0                       # Number of times read queue was full causing retry
system.mem_ctrls.numWrRetry                         0                       # Number of times write queue was full causing retry
system.mem_ctrls.totGap                             0                       # Total gap between requests
system.mem_ctrls.readPktSize::0                     0                       # Read request sizes (log2)
system.mem_ctrls.readPktSize::1                     0                       # Read request sizes (log2)
system.mem_ctrls.readPktSize::2                     0                       # Read request sizes (log2)
system.mem_ctrls.readPktSize::3                     0                       # Read request sizes (log2)
system.mem_ctrls.readPktSize::4                     0                       # Read request sizes (log2)
system.mem_ctrls.readPktSize::5                     0                       # Read request sizes (log2)
system.mem_ctrls.readPktSize::6                     0                       # Read request sizes (log2)
system.mem_ctrls.writePktSize::0                    0                       # Write request sizes (log2)
system.mem_ctrls.writePktSize::1                    0                       # Write request sizes (log2)
system.mem_ctrls.writePktSize::2                    0                       # Write request sizes (log2)
system.mem_ctrls.writePktSize::3                    0                       # Write request sizes (log2)
system.mem_ctrls.writePktSize::4                    0                       # Write request sizes (log2)
system.mem_ctrls.writePktSize::5                    0                       # Write request sizes (log2)
system.mem_ctrls.writePktSize::6                    0                       # Write request sizes (log2)
system.mem_ctrls.rdQLenPdf::0                       0                       # What read queue length does an incoming req see
system.mem_ctrls.rdQLenPdf::1                       0                       # What read queue length does an incoming req see
system.mem_ctrls.rdQLenPdf::2                       0                       # What read queue length does an incoming req see
system.mem_ctrls.rdQLenPdf::3                       0                       # What read queue length does an incoming req see
system.mem_ctrls.rdQLenPdf::4                       0                       # What read queue length does an incoming req see
system.mem_ctrls.rdQLenPdf::5                       0                       # What read queue length does an incoming req see
system.mem_ctrls.rdQLenPdf::6                       0                       # What read queue length does an incoming req see
system.mem_ctrls.rdQLenPdf::7                       0                       # What read queue length does an incoming req see
system.mem_ctrls.rdQLenPdf::8                       0                       # What read queue length does an incoming req see
system.mem_ctrls.rdQLenPdf::9                       0                       # What read queue length does an incoming req see
system.mem_ctrls.rdQLenPdf::10                      0                       # What read queue length does an incoming req see
system.mem_ctrls.rdQLenPdf::11                      0                       # What read queue length does an incoming req see
system.mem_ctrls.rdQLenPdf::12                      0                       # What read queue length does an incoming req see
system.mem_ctrls.rdQLenPdf::13                      0                       # What read queue length does an incoming req see
system.mem_ctrls.rdQLenPdf::14                      0                       # What read queue length does an incoming req see
system.mem_ctrls.rdQLenPdf::15                      0                       # What read queue length does an incoming req see
system.mem_ctrls.rdQLenPdf::16                      0                       # What read queue length does an incoming req see
system.mem_ctrls.rdQLenPdf::17                      0                       # What read queue length does an incoming req see
system.mem_ctrls.rdQLenPdf::18                      0                       # What read queue length does an incoming req see
system.mem_ctrls.rdQLenPdf::19                      0                       # What read queue length does an incoming req see
system.mem_ctrls.rdQLenPdf::20                      0                       # What read queue length does an incoming req see
system.mem_ctrls.rdQLenPdf::21                      0                       # What read queue length does an incoming req see
system.mem_ctrls.rdQLenPdf::22                      0                       # What read queue length does an incoming req see
system.mem_ctrls.rdQLenPdf::23                      0                       # What read queue length does an incoming req see
system.mem_ctrls.rdQLenPdf::24                      0                       # What read queue length does an incoming req see
system.mem_ctrls.rdQLenPdf::25                      0                       # What read queue length does an incoming req see
system.mem_ctrls.rdQLenPdf::26                      0                       # What read queue length does an incoming req see
system.mem_ctrls.rdQLenPdf::27                      0                       # What read queue length does an incoming req see
system.mem_ctrls.rdQLenPdf::28                      0                       # What read queue length does an incoming req see
system.mem_ctrls.rdQLenPdf::29                      0                       # What read queue length does an incoming req see
system.mem_ctrls.rdQLenPdf::30                      0                       # What read queue length does an incoming req see
system.mem_ctrls.rdQLenPdf::31                      0                       # What read queue length does an incoming req see
system.mem_ctrls.wrQLenPdf::0                       0                       # What write queue length does an incoming req see
system.mem_ctrls.wrQLenPdf::1                       0                       # What write queue length does an incoming req see
[...]
system.disk0.dma_write_bytes                        0                       # Number of bytes transfered via DMA writes.
system.disk0.dma_write_txs                          0                       # Number of DMA write transactions.
system.disk2.dma_read_full_pages                    0                       # Number of full page size DMA reads (not PRD).
system.disk2.dma_read_bytes                         0                       # Number of bytes transfered via DMA reads (not PRD).
system.disk2.dma_read_txs                           0                       # Number of DMA read transactions (not PRD).
system.disk2.dma_write_full_pages                   0                       # Number of full page size DMA writes.
system.disk2.dma_write_bytes                        0                       # Number of bytes transfered via DMA writes.
system.disk2.dma_write_txs                          0                       # Number of DMA write transactions.
system.cpu_voltage_domain.voltage                   1                       # Voltage in Volts
system.cpu_clk_domain.clock                       500                       # Clock period in ticks
system.cpu.dtb.fetch_hits                           0                       # ITB hits
system.cpu.dtb.fetch_misses                         0                       # ITB misses
system.cpu.dtb.fetch_acv                            0                       # ITB acv
system.cpu.dtb.fetch_accesses                       0                       # ITB accesses
system.cpu.dtb.read_hits                       139034                       # DTB read hits
system.cpu.dtb.read_misses                        767                       # DTB read misses
system.cpu.dtb.read_acv                            12                       # DTB read access violations
system.cpu.dtb.read_accesses                    46819                       # DTB read accesses
system.cpu.dtb.write_hits                      130425                       # DTB write hits
system.cpu.dtb.write_misses                       156                       # DTB write misses
system.cpu.dtb.write_acv                           21                       # DTB write access violations
system.cpu.dtb.write_accesses                   23034                       # DTB write accesses
system.cpu.dtb.data_hits                       269459                       # DTB hits
system.cpu.dtb.data_misses                        923                       # DTB misses
system.cpu.dtb.data_acv                            33                       # DTB access violations
system.cpu.dtb.data_accesses                    69853                       # DTB accesses
system.cpu.itb.fetch_hits                      239505                       # ITB hits
system.cpu.itb.fetch_misses                       355                       # ITB misses
system.cpu.itb.fetch_acv                            0                       # ITB acv
system.cpu.itb.fetch_accesses                  239860                       # ITB accesses
system.cpu.itb.read_hits                            0                       # DTB read hits
system.cpu.itb.read_misses                          0                       # DTB read misses
system.cpu.itb.read_acv                             0                       # DTB read access violations
system.cpu.itb.read_accesses                        0                       # DTB read accesses
system.cpu.itb.write_hits                           0                       # DTB write hits
system.cpu.itb.write_misses                         0                       # DTB write misses
system.cpu.itb.write_acv                            0                       # DTB write access violations
system.cpu.itb.write_accesses                       0                       # DTB write accesses
system.cpu.itb.data_hits                            0                       # DTB hits
system.cpu.itb.data_misses                          0                       # DTB misses
system.cpu.itb.data_acv                             0                       # DTB access violations
system.cpu.itb.data_accesses                        0                       # DTB accesses
system.cpu.numCycles                           751526                       # number of cpu cycles simulated
system.cpu.numWorkItemsStarted                      0                       # number of work items this cpu started
system.cpu.numWorkItemsCompleted                    0                       # number of work items this cpu completed
system.cpu.committedInsts                      750215                       # Number of instructions committed
system.cpu.committedOps                        750215                       # Number of ops (including micro ops) committed
system.cpu.num_int_alu_accesses                722191                       # Number of integer alu accesses
system.cpu.num_fp_alu_accesses                   3906                       # Number of float alu accesses
system.cpu.num_func_calls                       15983                       # number of times a function call or return occured
system.cpu.num_conditional_control_insts        78127                       # number of instructions that are conditional controls
system.cpu.num_int_insts                       722191                       # number of integer instructions
system.cpu.num_fp_insts                          3906                       # number of float instructions
system.cpu.num_int_register_reads             1016070                       # number of times the integer registers were read
system.cpu.num_int_register_writes             506837                       # number of times the integer registers were written
system.cpu.num_fp_register_reads                 2523                       # number of times the floating registers were read
system.cpu.num_fp_register_writes                2473                       # number of times the floating registers were written
system.cpu.num_mem_refs                        271858                       # number of memory refs
system.cpu.num_load_insts                      140902                       # Number of load instructions
system.cpu.num_store_insts                     130956                       # Number of store instructions
system.cpu.num_idle_cycles                          0                       # Number of idle cycles
system.cpu.num_busy_cycles                     751526                       # Number of busy cycles
system.cpu.not_idle_fraction                        1                       # Percentage of non-idle cycles
system.cpu.idle_fraction                            0                       # Percentage of idle cycles
system.cpu.Branches                             99478                       # Number of branches fetched
system.cpu.op_class::No_OpClass                 15298      2.04%      2.04% # Class of executed instruction
system.cpu.op_class::IntAlu                    438978     58.44%     60.48% # Class of executed instruction
system.cpu.op_class::IntMult                      749      0.10%     60.58% # Class of executed instruction
system.cpu.op_class::IntDiv                         0      0.00%     60.58% # Class of executed instruction
system.cpu.op_class::FloatAdd                    1217      0.16%     60.74% # Class of executed instruction
system.cpu.op_class::FloatCmp                       0      0.00%     60.74% # Class of executed instruction
system.cpu.op_class::FloatCvt                       0      0.00%     60.74% # Class of executed instruction
system.cpu.op_class::FloatMult                      0      0.00%     60.74% # Class of executed instruction
system.cpu.op_class::FloatDiv                     230      0.03%     60.77% # Class of executed instruction
system.cpu.op_class::FloatSqrt                      0      0.00%     60.77% # Class of executed instruction
system.cpu.op_class::SimdAdd                        0      0.00%     60.77% # Class of executed instruction
system.cpu.op_class::SimdAddAcc                     0      0.00%     60.77% # Class of executed instruction
system.cpu.op_class::SimdAlu                        0      0.00%     60.77% # Class of executed instruction
system.cpu.op_class::SimdCmp                        0      0.00%     60.77% # Class of executed instruction
system.cpu.op_class::SimdCvt                        0      0.00%     60.77% # Class of executed instruction
system.cpu.op_class::SimdMisc                       0      0.00%     60.77% # Class of executed instruction
system.cpu.op_class::SimdMult                       0      0.00%     60.77% # Class of executed instruction
system.cpu.op_class::SimdMultAcc                    0      0.00%     60.77% # Class of executed instruction
system.cpu.op_class::SimdShift                      0      0.00%     60.77% # Class of executed instruction
system.cpu.op_class::SimdShiftAcc                   0      0.00%     60.77% # Class of executed instruction
system.cpu.op_class::SimdSqrt                       0      0.00%     60.77% # Class of executed instruction
system.cpu.op_class::SimdFloatAdd                   0      0.00%     60.77% # Class of executed instruction
system.cpu.op_class::SimdFloatAlu                   0      0.00%     60.77% # Class of executed instruction
system.cpu.op_class::SimdFloatCmp                   0      0.00%     60.77% # Class of executed instruction
system.cpu.op_class::SimdFloatCvt                   0      0.00%     60.77% # Class of executed instruction
system.cpu.op_class::SimdFloatDiv                   0      0.00%     60.77% # Class of executed instruction
system.cpu.op_class::SimdFloatMisc                  0      0.00%     60.77% # Class of executed instruction
system.cpu.op_class::SimdFloatMult                  0      0.00%     60.77% # Class of executed instruction
system.cpu.op_class::SimdFloatMultAcc               0      0.00%     60.77% # Class of executed instruction
system.cpu.op_class::SimdFloatSqrt                  0      0.00%     60.77% # Class of executed instruction
system.cpu.op_class::MemRead                   145066     19.31%     80.08% # Class of executed instruction
system.cpu.op_class::MemWrite                  131299     17.48%     97.56% # Class of executed instruction
system.cpu.op_class::IprAccess                  18334      2.44%    100.00% # Class of executed instruction
system.cpu.op_class::InstPrefetch                   0      0.00%    100.00% # Class of executed instruction
system.cpu.op_class::total                     751171                       # Class of executed instruction
system.cpu.kern.inst.arm                            0                       # number of arm instructions executed
system.cpu.kern.inst.quiesce                        0                       # number of quiesce instructions executed
system.cpu.kern.inst.hwrei                       2547                       # number of hwrei instructions executed
system.cpu.kern.ipl_count::0                      530     49.49%     49.49% # number of times we switched to this ipl
system.cpu.kern.ipl_count::31                     541     50.51%    100.00% # number of times we switched to this ipl
system.cpu.kern.ipl_count::total                 1071                       # number of times we switched to this ipl
system.cpu.kern.ipl_good::0                       528     50.00%     50.00% # number of times we switched to this ipl from a different ipl
system.cpu.kern.ipl_good::31                      528     50.00%    100.00% # number of times we switched to this ipl from a different ipl
system.cpu.kern.ipl_good::total                  1056                       # number of times we switched to this ipl from a different ipl
system.cpu.kern.ipl_ticks::0                350290500     93.20%     93.20% # number of cycles we spent at this ipl
system.cpu.kern.ipl_ticks::31                25552000      6.80%    100.00% # number of cycles we spent at this ipl
system.cpu.kern.ipl_ticks::total            375842500                       # number of cycles we spent at this ipl
system.cpu.kern.ipl_used::0                  0.996226                       # fraction of swpipl calls that actually changed the ipl
system.cpu.kern.ipl_used::31                 0.975970                       # fraction of swpipl calls that actually changed the ipl
system.cpu.kern.ipl_used::total              0.985994                       # fraction of swpipl calls that actually changed the ipl
system.cpu.kern.syscall::2                          1      5.88%      5.88% # number of syscalls executed
system.cpu.kern.syscall::3                          2     11.76%     17.65% # number of syscalls executed
system.cpu.kern.syscall::6                          2     11.76%     29.41% # number of syscalls executed
system.cpu.kern.syscall::17                         1      5.88%     35.29% # number of syscalls executed
system.cpu.kern.syscall::33                         1      5.88%     41.18% # number of syscalls executed
system.cpu.kern.syscall::45                         3     17.65%     58.82% # number of syscalls executed
system.cpu.kern.syscall::48                         1      5.88%     64.71% # number of syscalls executed
system.cpu.kern.syscall::59                         1      5.88%     70.59% # number of syscalls executed
system.cpu.kern.syscall::71                         4     23.53%     94.12% # number of syscalls executed
system.cpu.kern.syscall::74                         1      5.88%    100.00% # number of syscalls executed
system.cpu.kern.syscall::total                     17                       # number of syscalls executed
system.cpu.kern.callpal::swpctx                   118      9.55%      9.55% # number of callpals executed
system.cpu.kern.callpal::tbi                        6      0.49%     10.03% # number of callpals executed
system.cpu.kern.callpal::swpipl                   887     71.76%     81.80% # number of callpals executed
system.cpu.kern.callpal::rdps                       1      0.08%     81.88% # number of callpals executed
system.cpu.kern.callpal::wrusp                      1      0.08%     81.96% # number of callpals executed
system.cpu.kern.callpal::rdusp                      1      0.08%     82.04% # number of callpals executed
system.cpu.kern.callpal::rti                      184     14.89%     96.93% # number of callpals executed
system.cpu.kern.callpal::callsys                   34      2.75%     99.68% # number of callpals executed
system.cpu.kern.callpal::imb                        4      0.32%    100.00% # number of callpals executed
system.cpu.kern.callpal::total                   1236                       # number of callpals executed
system.cpu.kern.mode_switch::kernel               302                       # number of protection mode switches
system.cpu.kern.mode_switch::user                 182                       # number of protection mode switches
system.cpu.kern.mode_switch::idle                   0                       # number of protection mode switches
system.cpu.kern.mode_good::kernel                 182                      
system.cpu.kern.mode_good::user                   182                      
system.cpu.kern.mode_good::idle                     0                      
system.cpu.kern.mode_switch_good::kernel     0.602649                       # fraction of useful protection mode switches
system.cpu.kern.mode_switch_good::user              1                       # fraction of useful protection mode switches
system.cpu.kern.mode_switch_good::idle            nan                       # fraction of useful protection mode switches
system.cpu.kern.mode_switch_good::total      0.752066                       # fraction of useful protection mode switches
system.cpu.kern.mode_ticks::kernel          266482500     70.90%     70.90% # number of ticks spent at the given mode
system.cpu.kern.mode_ticks::user            109360000     29.10%    100.00% # number of ticks spent at the given mode
system.cpu.kern.mode_ticks::idle                    0      0.00%    100.00% # number of ticks spent at the given mode
system.cpu.kern.swap_context                      118                       # number of times the context was actually changed
system.tsunami.ethernet.descDMAReads                0                       # Number of descriptors the device read w/ DMA
system.tsunami.ethernet.descDMAWrites               0                       # Number of descriptors the device wrote w/ DMA
system.tsunami.ethernet.descDmaReadBytes            0                       # number of descriptor bytes read w/ DMA
system.tsunami.ethernet.descDmaWriteBytes            0                       # number of descriptor bytes write w/ DMA
system.tsunami.ethernet.postedSwi                   0                       # number of software interrupts posted to CPU
system.tsunami.ethernet.coalescedSwi              nan                       # average number of Swi's coalesced into each post
system.tsunami.ethernet.totalSwi                    0                       # total number of Swi written to ISR
system.tsunami.ethernet.postedRxIdle                0                       # number of rxIdle interrupts posted to CPU
system.tsunami.ethernet.coalescedRxIdle           nan                       # average number of RxIdle's coalesced into each post
system.tsunami.ethernet.totalRxIdle                 0                       # total number of RxIdle written to ISR
system.tsunami.ethernet.postedRxOk                  0                       # number of RxOk interrupts posted to CPU
system.tsunami.ethernet.coalescedRxOk             nan                       # average number of RxOk's coalesced into each post
system.tsunami.ethernet.totalRxOk                   0                       # total number of RxOk written to ISR
system.tsunami.ethernet.postedRxDesc                0                       # number of RxDesc interrupts posted to CPU
system.tsunami.ethernet.coalescedRxDesc           nan                       # average number of RxDesc's coalesced into each post
system.tsunami.ethernet.totalRxDesc                 0                       # total number of RxDesc written to ISR
system.tsunami.ethernet.postedTxOk                  0                       # number of TxOk interrupts posted to CPU
system.tsunami.ethernet.coalescedTxOk             nan                       # average number of TxOk's coalesced into each post
system.tsunami.ethernet.totalTxOk                   0                       # total number of TxOk written to ISR
system.tsunami.ethernet.postedTxIdle                0                       # number of TxIdle interrupts posted to CPU
system.tsunami.ethernet.coalescedTxIdle           nan                       # average number of TxIdle's coalesced into each post
system.tsunami.ethernet.totalTxIdle                 0                       # total number of TxIdle written to ISR
system.tsunami.ethernet.postedTxDesc                0                       # number of TxDesc interrupts posted to CPU
system.tsunami.ethernet.coalescedTxDesc           nan                       # average number of TxDesc's coalesced into each post
system.tsunami.ethernet.totalTxDesc                 0                       # total number of TxDesc written to ISR
system.tsunami.ethernet.postedRxOrn                 0                       # number of RxOrn posted to CPU
system.tsunami.ethernet.coalescedRxOrn            nan                       # average number of RxOrn's coalesced into each post
system.tsunami.ethernet.totalRxOrn                  0                       # total number of RxOrn written to ISR
system.tsunami.ethernet.coalescedTotal            nan                       # average number of interrupts coalesced into each post
system.tsunami.ethernet.postedInterrupts            0                       # number of posts to CPU
system.tsunami.ethernet.droppedPackets              0                       # number of packets dropped

---------- End Simulation Statistics   ----------
