
---------- Begin Simulation Statistics ----------
sim_seconds                                  4.833543                       # Number of seconds simulated
sim_ticks                                4833542830000                       # Number of ticks simulated
final_tick                               4833542830000                       # Number of ticks from beginning of simulation (restored from checkpoints and never reset)
sim_freq                                 1000000000000                       # Frequency of simulated ticks
host_inst_rate                                1456341                       # Simulator instruction rate (inst/s)
host_op_rate                                  1456341                       # Simulator op (including micro ops) rate (op/s)
host_tick_rate                            43660963577                       # Simulator tick rate (ticks/s)
host_mem_usage                                 473584                       # Number of bytes of host memory used
host_seconds                                   110.71                       # Real time elapsed on the host
sim_insts                                   161226032                       # Number of instructions simulated
sim_ops                                     161226032                       # Number of ops (including micro ops) simulated
system.voltage_domain.voltage                       1                       # Voltage in Volts
system.clk_domain.clock                          1000                       # Clock period in ticks
system.mem_ctrls.bytes_read::cpu0.inst       44923968                       # Number of bytes read from this memory
system.mem_ctrls.bytes_read::cpu0.data      155834880                       # Number of bytes read from this memory
system.mem_ctrls.bytes_read::tsunami.ide         4032                       # Number of bytes read from this memory
system.mem_ctrls.bytes_read::cpu1.inst       23116544                       # Number of bytes read from this memory
system.mem_ctrls.bytes_read::cpu1.data        8752576                       # Number of bytes read from this memory
system.mem_ctrls.bytes_read::cpu2.inst       36601984                       # Number of bytes read from this memory
system.mem_ctrls.bytes_read::cpu2.data       11276736                       # Number of bytes read from this memory
system.mem_ctrls.bytes_read::cpu3.inst        3737088                       # Number of bytes read from this memory
system.mem_ctrls.bytes_read::cpu3.data        1595328                       # Number of bytes read from this memory
system.mem_ctrls.bytes_read::cpu4.inst        3640192                       # Number of bytes read from this memory
system.mem_ctrls.bytes_read::cpu4.data        3048832                       # Number of bytes read from this memory
system.mem_ctrls.bytes_read::cpu5.inst        2782272                       # Number of bytes read from this memory
system.mem_ctrls.bytes_read::cpu5.data        1788672                       # Number of bytes read from this memory
system.mem_ctrls.bytes_read::cpu6.inst        1472896                       # Number of bytes read from this memory
system.mem_ctrls.bytes_read::cpu6.data         496000                       # Number of bytes read from this memory
system.mem_ctrls.bytes_read::cpu7.inst        1726464                       # Number of bytes read from this memory
system.mem_ctrls.bytes_read::cpu7.data        1102592                       # Number of bytes read from this memory
system.mem_ctrls.bytes_read::total          301901056                       # Number of bytes read from this memory
system.mem_ctrls.bytes_inst_read::cpu0.inst     44923968                       # Number of instructions bytes read from this memory
system.mem_ctrls.bytes_inst_read::cpu1.inst     23116544                       # Number of instructions bytes read from this memory
system.mem_ctrls.bytes_inst_read::cpu2.inst     36601984                       # Number of instructions bytes read from this memory
system.mem_ctrls.bytes_inst_read::cpu3.inst      3737088                       # Number of instructions bytes read from this memory
system.mem_ctrls.bytes_inst_read::cpu4.inst      3640192                       # Number of instructions bytes read from this memory
system.mem_ctrls.bytes_inst_read::cpu5.inst      2782272                       # Number of instructions bytes read from this memory
system.mem_ctrls.bytes_inst_read::cpu6.inst      1472896                       # Number of instructions bytes read from this memory
system.mem_ctrls.bytes_inst_read::cpu7.inst      1726464                       # Number of instructions bytes read from this memory
system.mem_ctrls.bytes_inst_read::total     118001408                       # Number of instructions bytes read from this memory
system.mem_ctrls.bytes_written::writebacks     31984576                       # Number of bytes written to this memory
system.mem_ctrls.bytes_written::tsunami.ide      2832384                       # Number of bytes written to this memory
system.mem_ctrls.bytes_written::total        34816960                       # Number of bytes written to this memory
system.mem_ctrls.num_reads::cpu0.inst          701937                       # Number of read requests responded to by this memory
system.mem_ctrls.num_reads::cpu0.data         2434920                       # Number of read requests responded to by this memory
system.mem_ctrls.num_reads::tsunami.ide            63                       # Number of read requests responded to by this memory
system.mem_ctrls.num_reads::cpu1.inst          361196                       # Number of read requests responded to by this memory
system.mem_ctrls.num_reads::cpu1.data          136759                       # Number of read requests responded to by this memory
system.mem_ctrls.num_reads::cpu2.inst          571906                       # Number of read requests responded to by this memory
system.mem_ctrls.num_reads::cpu2.data          176199                       # Number of read requests responded to by this memory
system.mem_ctrls.num_reads::cpu3.inst           58392                       # Number of read requests responded to by this memory
system.mem_ctrls.num_reads::cpu3.data           24927                       # Number of read requests responded to by this memory
system.mem_ctrls.num_reads::cpu4.inst           56878                       # Number of read requests responded to by this memory
system.mem_ctrls.num_reads::cpu4.data           47638                       # Number of read requests responded to by this memory
system.mem_ctrls.num_reads::cpu5.inst           43473                       # Number of read requests responded to by this memory
system.mem_ctrls.num_reads::cpu5.data           27948                       # Number of read requests responded to by this memory
system.mem_ctrls.num_reads::cpu6.inst           23014                       # Number of read requests responded to by this memory
system.mem_ctrls.num_reads::cpu6.data            7750                       # Number of read requests responded to by this memory
system.mem_ctrls.num_reads::cpu7.inst           26976                       # Number of read requests responded to by this memory
system.mem_ctrls.num_reads::cpu7.data           17228                       # Number of read requests responded to by this memory
system.mem_ctrls.num_reads::total             4717204                       # Number of read requests responded to by this memory
system.mem_ctrls.num_writes::writebacks        499759                       # Number of write requests responded to by this memory
system.mem_ctrls.num_writes::tsunami.ide        44256                       # Number of write requests responded to by this memory
system.mem_ctrls.num_writes::total             544015                       # Number of write requests responded to by this memory
system.mem_ctrls.bw_read::cpu0.inst           9294211                       # Total read bandwidth from this memory (bytes/s)
system.mem_ctrls.bw_read::cpu0.data          32240302                       # Total read bandwidth from this memory (bytes/s)
system.mem_ctrls.bw_read::tsunami.ide             834                       # Total read bandwidth from this memory (bytes/s)
system.mem_ctrls.bw_read::cpu1.inst           4782526                       # Total read bandwidth from this memory (bytes/s)
system.mem_ctrls.bw_read::cpu1.data           1810799                       # Total read bandwidth from this memory (bytes/s)
system.mem_ctrls.bw_read::cpu2.inst           7572496                       # Total read bandwidth from this memory (bytes/s)
system.mem_ctrls.bw_read::cpu2.data           2333017                       # Total read bandwidth from this memory (bytes/s)
system.mem_ctrls.bw_read::cpu3.inst            773157                       # Total read bandwidth from this memory (bytes/s)
system.mem_ctrls.bw_read::cpu3.data            330054                       # Total read bandwidth from this memory (bytes/s)
system.mem_ctrls.bw_read::cpu4.inst            753111                       # Total read bandwidth from this memory (bytes/s)
system.mem_ctrls.bw_read::cpu4.data            630765                       # Total read bandwidth from this memory (bytes/s)
system.mem_ctrls.bw_read::cpu5.inst            575618                       # Total read bandwidth from this memory (bytes/s)
system.mem_ctrls.bw_read::cpu5.data            370054                       # Total read bandwidth from this memory (bytes/s)
system.mem_ctrls.bw_read::cpu6.inst            304724                       # Total read bandwidth from this memory (bytes/s)
system.mem_ctrls.bw_read::cpu6.data            102616                       # Total read bandwidth from this memory (bytes/s)
system.mem_ctrls.bw_read::cpu7.inst            357184                       # Total read bandwidth from this memory (bytes/s)
system.mem_ctrls.bw_read::cpu7.data            228113                       # Total read bandwidth from this memory (bytes/s)
system.mem_ctrls.bw_read::total              62459580                       # Total read bandwidth from this memory (bytes/s)
system.mem_ctrls.bw_inst_read::cpu0.inst      9294211                       # Instruction read bandwidth from this memory (bytes/s)
system.mem_ctrls.bw_inst_read::cpu1.inst      4782526                       # Instruction read bandwidth from this memory (bytes/s)
system.mem_ctrls.bw_inst_read::cpu2.inst      7572496                       # Instruction read bandwidth from this memory (bytes/s)
system.mem_ctrls.bw_inst_read::cpu3.inst       773157                       # Instruction read bandwidth from this memory (bytes/s)
system.mem_ctrls.bw_inst_read::cpu4.inst       753111                       # Instruction read bandwidth from this memory (bytes/s)
system.mem_ctrls.bw_inst_read::cpu5.inst       575618                       # Instruction read bandwidth from this memory (bytes/s)
system.mem_ctrls.bw_inst_read::cpu6.inst       304724                       # Instruction read bandwidth from this memory (bytes/s)
system.mem_ctrls.bw_inst_read::cpu7.inst       357184                       # Instruction read bandwidth from this memory (bytes/s)
system.mem_ctrls.bw_inst_read::total         24413026                       # Instruction read bandwidth from this memory (bytes/s)
system.mem_ctrls.bw_write::writebacks         6617212                       # Write bandwidth from this memory (bytes/s)
system.mem_ctrls.bw_write::tsunami.ide         585985                       # Write bandwidth from this memory (bytes/s)
system.mem_ctrls.bw_write::total              7203197                       # Write bandwidth from this memory (bytes/s)
system.mem_ctrls.bw_total::writebacks         6617212                       # Total bandwidth to/from this memory (bytes/s)
system.mem_ctrls.bw_total::cpu0.inst          9294211                       # Total bandwidth to/from this memory (bytes/s)
system.mem_ctrls.bw_total::cpu0.data         32240302                       # Total bandwidth to/from this memory (bytes/s)
system.mem_ctrls.bw_total::tsunami.ide         586819                       # Total bandwidth to/from this memory (bytes/s)
system.mem_ctrls.bw_total::cpu1.inst          4782526                       # Total bandwidth to/from this memory (bytes/s)
system.mem_ctrls.bw_total::cpu1.data          1810799                       # Total bandwidth to/from this memory (bytes/s)
system.mem_ctrls.bw_total::cpu2.inst          7572496                       # Total bandwidth to/from this memory (bytes/s)
system.mem_ctrls.bw_total::cpu2.data          2333017                       # Total bandwidth to/from this memory (bytes/s)
system.mem_ctrls.bw_total::cpu3.inst           773157                       # Total bandwidth to/from this memory (bytes/s)
system.mem_ctrls.bw_total::cpu3.data           330054                       # Total bandwidth to/from this memory (bytes/s)
system.mem_ctrls.bw_total::cpu4.inst           753111                       # Total bandwidth to/from this memory (bytes/s)
system.mem_ctrls.bw_total::cpu4.data           630765                       # Total bandwidth to/from this memory (bytes/s)
system.mem_ctrls.bw_total::cpu5.inst           575618                       # Total bandwidth to/from this memory (bytes/s)
system.mem_ctrls.bw_total::cpu5.data           370054                       # Total bandwidth to/from this memory (bytes/s)
system.mem_ctrls.bw_total::cpu6.inst           304724                       # Total bandwidth to/from this memory (bytes/s)
system.mem_ctrls.bw_total::cpu6.data           102616                       # Total bandwidth to/from this memory (bytes/s)
system.mem_ctrls.bw_total::cpu7.inst           357184                       # Total bandwidth to/from this memory (bytes/s)
system.mem_ctrls.bw_total::cpu7.data           228113                       # Total bandwidth to/from this memory (bytes/s)
system.mem_ctrls.bw_total::total             69662777                       # Total bandwidth to/from this memory (bytes/s)
system.mem_ctrls.readReqs                     4717204                       # Number of read requests accepted
system.mem_ctrls.writeReqs                     544015                       # Number of write requests accepted
system.mem_ctrls.readBursts                   4717204                       # Number of DRAM read bursts, including those serviced by the write queue
system.mem_ctrls.writeBursts                   544015                       # Number of DRAM write bursts, including those merged in the write queue
system.mem_ctrls.bytesReadDRAM              299105536                       # Total number of bytes read from DRAM
system.mem_ctrls.bytesReadWrQ                 2795520                       # Total number of bytes read from write queue
system.mem_ctrls.bytesWritten                34404800                       # Total number of bytes written to DRAM
system.mem_ctrls.bytesReadSys               301901056                       # Total read bytes from the system interface side
system.mem_ctrls.bytesWrittenSys             34816960                       # Total written bytes from the system interface side
system.mem_ctrls.servicedByWrQ                  43680                       # Number of DRAM read bursts serviced by the write queue
system.mem_ctrls.mergedWrBursts                  6409                       # Number of DRAM write bursts merged with an existing one
system.mem_ctrls.neitherReadNorWriteReqs        78086                       # Number of requests that are neither read nor write
system.mem_ctrls.perBankRdBursts::0            342609                       # Per bank write bursts
system.mem_ctrls.perBankRdBursts::1            255590                       # Per bank write bursts
system.mem_ctrls.perBankRdBursts::2            247676                       # Per bank write bursts
system.mem_ctrls.perBankRdBursts::3            210605                       # Per bank write bursts
system.mem_ctrls.perBankRdBursts::4            226283                       # Per bank write bursts
system.mem_ctrls.perBankRdBursts::5            261429                       # Per bank write bursts
system.mem_ctrls.perBankRdBursts::6            273566                       # Per bank write bursts
system.mem_ctrls.perBankRdBursts::7            260913                       # Per bank write bursts
system.mem_ctrls.perBankRdBursts::8            373946                       # Per bank write bursts
system.mem_ctrls.perBankRdBursts::9            323749                       # Per bank write bursts
system.mem_ctrls.perBankRdBursts::10           343235                       # Per bank write bursts
system.mem_ctrls.perBankRdBursts::11           355176                       # Per bank write bursts
system.mem_ctrls.perBankRdBursts::12           276264                       # Per bank write bursts
system.mem_ctrls.perBankRdBursts::13           325460                       # Per bank write bursts
system.mem_ctrls.perBankRdBursts::14           263133                       # Per bank write bursts
system.mem_ctrls.perBankRdBursts::15           333890                       # Per bank write bursts
system.mem_ctrls.perBankWrBursts::0             32650                       # Per bank write bursts
system.mem_ctrls.perBankWrBursts::1             39793                       # Per bank write bursts
system.mem_ctrls.perBankWrBursts::2             25022                       # Per bank write bursts
system.mem_ctrls.perBankWrBursts::3             22016                       # Per bank write bursts
system.mem_ctrls.perBankWrBursts::4             25580                       # Per bank write bursts
system.mem_ctrls.perBankWrBursts::5             34014                       # Per bank write bursts
system.mem_ctrls.perBankWrBursts::6             29480                       # Per bank write bursts
system.mem_ctrls.perBankWrBursts::7             30226                       # Per bank write bursts
system.mem_ctrls.perBankWrBursts::8             28504                       # Per bank write bursts
system.mem_ctrls.perBankWrBursts::9             28170                       # Per bank write bursts
system.mem_ctrls.perBankWrBursts::10            28268                       # Per bank write bursts
system.mem_ctrls.perBankWrBursts::11            59217                       # Per bank write bursts
system.mem_ctrls.perBankWrBursts::12            32340                       # Per bank write bursts
system.mem_ctrls.perBankWrBursts::13            25415                       # Per bank write bursts
system.mem_ctrls.perBankWrBursts::14            29822                       # Per bank write bursts
system.mem_ctrls.perBankWrBursts::15            67058                       # Per bank write bursts
system.mem_ctrls.numRdRetry                         0                       # Number of times read queue was full causing retry
system.mem_ctrls.numWrRetry                        13                       # Number of times write queue was full causing retry
system.mem_ctrls.totGap                  4833542740000                       # Total gap between requests
system.mem_ctrls.readPktSize::0                     0                       # Read request sizes (log2)
system.mem_ctrls.readPktSize::1                     0                       # Read request sizes (log2)
system.mem_ctrls.readPktSize::2                     0                       # Read request sizes (log2)
system.mem_ctrls.readPktSize::3                     0                       # Read request sizes (log2)
system.mem_ctrls.readPktSize::4                     0                       # Read request sizes (log2)
system.mem_ctrls.readPktSize::5                     0                       # Read request sizes (log2)
system.mem_ctrls.readPktSize::6               4717204                       # Read request sizes (log2)
system.mem_ctrls.writePktSize::0                    0                       # Write request sizes (log2)
system.mem_ctrls.writePktSize::1                    0                       # Write request sizes (log2)
system.mem_ctrls.writePktSize::2                    0                       # Write request sizes (log2)
system.mem_ctrls.writePktSize::3                    0                       # Write request sizes (log2)
system.mem_ctrls.writePktSize::4                    0                       # Write request sizes (log2)
system.mem_ctrls.writePktSize::5                    0                       # Write request sizes (log2)
system.mem_ctrls.writePktSize::6               544015                       # Write request sizes (log2)
system.mem_ctrls.rdQLenPdf::0                 4499781                       # What read queue length does an incoming req see
system.mem_ctrls.rdQLenPdf::1                   87867                       # What read queue length does an incoming req see
system.mem_ctrls.rdQLenPdf::2                   27271                       # What read queue length does an incoming req see
system.mem_ctrls.rdQLenPdf::3                   22721                       # What read queue length does an incoming req see
system.mem_ctrls.rdQLenPdf::4                   15686                       # What read queue length does an incoming req see
system.mem_ctrls.rdQLenPdf::5                   11412                       # What read queue length does an incoming req see
system.mem_ctrls.rdQLenPdf::6                    5830                       # What read queue length does an incoming req see
system.mem_ctrls.rdQLenPdf::7                    2943                       # What read queue length does an incoming req see
system.mem_ctrls.rdQLenPdf::8                       2                       # What read queue length does an incoming req see
system.mem_ctrls.rdQLenPdf::9                       1                       # What read queue length does an incoming req see
system.mem_ctrls.rdQLenPdf::10                      2                       # What read queue length does an incoming req see
system.mem_ctrls.rdQLenPdf::11                      1                       # What read queue length does an incoming req see
system.mem_ctrls.rdQLenPdf::12                      1                       # What read queue length does an incoming req see
system.mem_ctrls.rdQLenPdf::13                      1                       # What read queue length does an incoming req see
system.mem_ctrls.rdQLenPdf::14                      1                       # What read queue length does an incoming req see
system.mem_ctrls.rdQLenPdf::15                      1                       # What read queue length does an incoming req see
system.mem_ctrls.rdQLenPdf::16                      1                       # What read queue length does an incoming req see
system.mem_ctrls.rdQLenPdf::17                      1                       # What read queue length does an incoming req see
system.mem_ctrls.rdQLenPdf::18                      1                       # What read queue length does an incoming req see
system.mem_ctrls.rdQLenPdf::19                      0                       # What read queue length does an incoming req see
system.mem_ctrls.rdQLenPdf::20                      0                       # What read queue length does an incoming req see
system.mem_ctrls.rdQLenPdf::21                      0                       # What read queue length does an incoming req see
system.mem_ctrls.rdQLenPdf::22                      0                       # What read queue length does an incoming req see
system.mem_ctrls.rdQLenPdf::23                      0                       # What read queue length does an incoming req see
system.mem_ctrls.rdQLenPdf::24                      0                       # What read queue length does an incoming req see
system.mem_ctrls.rdQLenPdf::25                      0                       # What read queue length does an incoming req see
system.mem_ctrls.rdQLenPdf::26                      0                       # What read queue length does an incoming req see
system.mem_ctrls.rdQLenPdf::27                      0                       # What read queue length does an incoming req see
system.mem_ctrls.rdQLenPdf::28                      0                       # What read queue length does an incoming req see
system.mem_ctrls.rdQLenPdf::29                      0                       # What read queue length does an incoming req see
system.mem_ctrls.rdQLenPdf::30                      0                       # What read queue length does an incoming req see
system.mem_ctrls.rdQLenPdf::31                      0                       # What read queue length does an incoming req see
system.mem_ctrls.wrQLenPdf::0                       1                       # What write queue length does an incoming req see
system.mem_ctrls.wrQLenPdf::1                       1                       # What write queue length does an incoming req see
system.mem_ctrls.wrQLenPdf::2                       1                       # What write queue length does an incoming req see
system.mem_ctrls.wrQLenPdf::3                       1                       # What write queue length does an incoming req see
system.mem_ctrls.wrQLenPdf::4                       1                       # What write queue length does an incoming req see
system.mem_ctrls.wrQLenPdf::5                       1                       # What write queue length does an incoming req see
system.mem_ctrls.wrQLenPdf::6                       1                       # What write queue length does an incoming req see
system.mem_ctrls.wrQLenPdf::7                       1                       # What write queue length does an incoming req see
system.mem_ctrls.wrQLenPdf::8                       1                       # What write queue length does an incoming req see
system.mem_ctrls.wrQLenPdf::9                       1                       # What write queue length does an incoming req see
system.mem_ctrls.wrQLenPdf::10                      1                       # What write queue length does an incoming req see
system.mem_ctrls.wrQLenPdf::11                      1                       # What write queue length does an incoming req see
system.mem_ctrls.wrQLenPdf::12                      1                       # What write queue length does an incoming req see
system.mem_ctrls.wrQLenPdf::13                      1                       # What write queue length does an incoming req see
system.mem_ctrls.wrQLenPdf::14                      1                       # What write queue length does an incoming req see
system.mem_ctrls.wrQLenPdf::15                  25447                       # What write queue length does an incoming req see
system.mem_ctrls.wrQLenPdf::16                  26372                       # What write queue length does an incoming req see
system.mem_ctrls.wrQLenPdf::17                  28687                       # What write queue length does an incoming req see
system.mem_ctrls.wrQLenPdf::18                  28899                       # What write queue length does an incoming req see
system.mem_ctrls.wrQLenPdf::19                  29043                       # What write queue length does an incoming req see
system.mem_ctrls.wrQLenPdf::20                  29400                       # What write queue length does an incoming req see
system.mem_ctrls.wrQLenPdf::21                  29513                       # What write queue length does an incoming req see
system.mem_ctrls.wrQLenPdf::22                  30131                       # What write queue length does an incoming req see
system.mem_ctrls.wrQLenPdf::23                  30477                       # What write queue length does an incoming req see
system.mem_ctrls.wrQLenPdf::24                  31229                       # What write queue length does an incoming req see
system.mem_ctrls.wrQLenPdf::25                  31014                       # What write queue length does an incoming req see
system.mem_ctrls.wrQLenPdf::26                  30889                       # What write queue length does an incoming req see
system.mem_ctrls.wrQLenPdf::27                  30704                       # What write queue length does an incoming req see
system.mem_ctrls.wrQLenPdf::28                  30914                       # What write queue length does an incoming req see
system.mem_ctrls.wrQLenPdf::29                  30162                       # What write queue length does an incoming req see
system.mem_ctrls.wrQLenPdf::30                  29902                       # What write queue length does an incoming req see
system.mem_ctrls.wrQLenPdf::31                  29623                       # What write queue length does an incoming req see
system.mem_ctrls.wrQLenPdf::32                  29553                       # What write queue length does an incoming req see
system.mem_ctrls.wrQLenPdf::33                    525                       # What write queue length does an incoming req see
system.mem_ctrls.wrQLenPdf::34                    365                       # What write queue length does an incoming req see
system.mem_ctrls.wrQLenPdf::35                    304                       # What write queue length does an incoming req see
system.mem_ctrls.wrQLenPdf::36                    278                       # What write queue length does an incoming req see
system.mem_ctrls.wrQLenPdf::37                    261                       # What write queue length does an incoming req see
system.mem_ctrls.wrQLenPdf::38                    246                       # What write queue length does an incoming req see
system.mem_ctrls.wrQLenPdf::39                    218                       # What write queue length does an incoming req see
system.mem_ctrls.wrQLenPdf::40                    214                       # What write queue length does an incoming req see
system.mem_ctrls.wrQLenPdf::41                    193                       # What write queue length does an incoming req see
system.mem_ctrls.wrQLenPdf::42                    200                       # What write queue length does an incoming req see
system.mem_ctrls.wrQLenPdf::43                    198                       # What write queue length does an incoming req see
system.mem_ctrls.wrQLenPdf::44                    183                       # What write queue length does an incoming req see
system.mem_ctrls.wrQLenPdf::45                    174                       # What write queue length does an incoming req see
system.mem_ctrls.wrQLenPdf::46                    174                       # What write queue length does an incoming req see
system.mem_ctrls.wrQLenPdf::47                    183                       # What write queue length does an incoming req see
system.mem_ctrls.wrQLenPdf::48                    156                       # What write queue length does an incoming req see
system.mem_ctrls.wrQLenPdf::49                    150                       # What write queue length does an incoming req see
system.mem_ctrls.wrQLenPdf::50                    134                       # What write queue length does an incoming req see
system.mem_ctrls.wrQLenPdf::51                    144                       # What write queue length does an incoming req see
system.mem_ctrls.wrQLenPdf::52                    142                       # What write queue length does an incoming req see
system.mem_ctrls.wrQLenPdf::53                    131                       # What write queue length does an incoming req see
system.mem_ctrls.wrQLenPdf::54                    124                       # What write queue length does an incoming req see
system.mem_ctrls.wrQLenPdf::55                    132                       # What write queue length does an incoming req see
system.mem_ctrls.wrQLenPdf::56                    134                       # What write queue length does an incoming req see
system.mem_ctrls.wrQLenPdf::57                    139                       # What write queue length does an incoming req see
system.mem_ctrls.wrQLenPdf::58                    129                       # What write queue length does an incoming req see
system.mem_ctrls.wrQLenPdf::59                    122                       # What write queue length does an incoming req see
system.mem_ctrls.wrQLenPdf::60                    109                       # What write queue length does an incoming req see
system.mem_ctrls.wrQLenPdf::61                     69                       # What write queue length does an incoming req see
system.mem_ctrls.wrQLenPdf::62                     57                       # What write queue length does an incoming req see
system.mem_ctrls.wrQLenPdf::63                     44                       # What write queue length does an incoming req see
system.mem_ctrls.bytesPerActivate::samples      1582395                       # Bytes accessed per row activation
system.mem_ctrls.bytesPerActivate::mean    210.762810                       # Bytes accessed per row activation
system.mem_ctrls.bytesPerActivate::gmean   138.264340                       # Bytes accessed per row activation
system.mem_ctrls.bytesPerActivate::stdev   235.225109                       # Bytes accessed per row activation
system.mem_ctrls.bytesPerActivate::0-127       710125     44.88%     44.88% # Bytes accessed per row activation
system.mem_ctrls.bytesPerActivate::128-255       421446     26.63%     71.51% # Bytes accessed per row activation
system.mem_ctrls.bytesPerActivate::256-383       200541     12.67%     84.18% # Bytes accessed per row activation
system.mem_ctrls.bytesPerActivate::384-511        74578      4.71%     88.90% # Bytes accessed per row activation
system.mem_ctrls.bytesPerActivate::512-639        60643      3.83%     92.73% # Bytes accessed per row activation
system.mem_ctrls.bytesPerActivate::640-767        26245      1.66%     94.39% # Bytes accessed per row activation
system.mem_ctrls.bytesPerActivate::768-895        11374      0.72%     95.11% # Bytes accessed per row activation
system.mem_ctrls.bytesPerActivate::896-1023         6598      0.42%     95.52% # Bytes accessed per row activation
system.mem_ctrls.bytesPerActivate::1024-1151        70845      4.48%    100.00% # Bytes accessed per row activation
system.mem_ctrls.bytesPerActivate::total      1582395                       # Bytes accessed per row activation
system.mem_ctrls.rdPerTurnAround::samples        28884                       # Reads before turning the bus around for writes
system.mem_ctrls.rdPerTurnAround::mean     161.801620                       # Reads before turning the bus around for writes
system.mem_ctrls.rdPerTurnAround::stdev   6074.016012                       # Reads before turning the bus around for writes
system.mem_ctrls.rdPerTurnAround::0-32767        28883    100.00%    100.00% # Reads before turning the bus around for writes
system.mem_ctrls.rdPerTurnAround::1.01581e+06-1.04858e+06            1      0.00%    100.00% # Reads before turning the bus around for writes
system.mem_ctrls.rdPerTurnAround::total         28884                       # Reads before turning the bus around for writes
system.mem_ctrls.wrPerTurnAround::samples        28884                       # Writes before turning the bus around for reads
system.mem_ctrls.wrPerTurnAround::mean      18.611515                       # Writes before turning the bus around for reads
system.mem_ctrls.wrPerTurnAround::gmean     18.257149                       # Writes before turning the bus around for reads
system.mem_ctrls.wrPerTurnAround::stdev      5.852430                       # Writes before turning the bus around for reads
system.mem_ctrls.wrPerTurnAround::16-19         27914     96.64%     96.64% # Writes before turning the bus around for reads
system.mem_ctrls.wrPerTurnAround::20-23           108      0.37%     97.02% # Writes before turning the bus around for reads
system.mem_ctrls.wrPerTurnAround::24-27           116      0.40%     97.42% # Writes before turning the bus around for reads
system.mem_ctrls.wrPerTurnAround::28-31           220      0.76%     98.18% # Writes before turning the bus around for reads
system.mem_ctrls.wrPerTurnAround::32-35           135      0.47%     98.65% # Writes before turning the bus around for reads
system.mem_ctrls.wrPerTurnAround::36-39            60      0.21%     98.85% # Writes before turning the bus around for reads
system.mem_ctrls.wrPerTurnAround::40-43            43      0.15%     99.00% # Writes before turning the bus around for reads
system.mem_ctrls.wrPerTurnAround::44-47            49      0.17%     99.17% # Writes before turning the bus around for reads
system.mem_ctrls.wrPerTurnAround::48-51            32      0.11%     99.28% # Writes before turning the bus around for reads
system.mem_ctrls.wrPerTurnAround::52-55            18      0.06%     99.35% # Writes before turning the bus around for reads
system.mem_ctrls.wrPerTurnAround::56-59            18      0.06%     99.41% # Writes before turning the bus around for reads
system.mem_ctrls.wrPerTurnAround::60-63            22      0.08%     99.48% # Writes before turning the bus around for reads
system.mem_ctrls.wrPerTurnAround::64-67            23      0.08%     99.56% # Writes before turning the bus around for reads
system.mem_ctrls.wrPerTurnAround::68-71            19      0.07%     99.63% # Writes before turning the bus around for reads
system.mem_ctrls.wrPerTurnAround::72-75            18      0.06%     99.69% # Writes before turning the bus around for reads
system.mem_ctrls.wrPerTurnAround::76-79            14      0.05%     99.74% # Writes before turning the bus around for reads
system.mem_ctrls.wrPerTurnAround::80-83            12      0.04%     99.78% # Writes before turning the bus around for reads
system.mem_ctrls.wrPerTurnAround::84-87            12      0.04%     99.82% # Writes before turning the bus around for reads
system.mem_ctrls.wrPerTurnAround::88-91             7      0.02%     99.85% # Writes before turning the bus around for reads
system.mem_ctrls.wrPerTurnAround::92-95            11      0.04%     99.89% # Writes before turning the bus around for reads
system.mem_ctrls.wrPerTurnAround::96-99            12      0.04%     99.93% # Writes before turning the bus around for reads
system.mem_ctrls.wrPerTurnAround::100-103            7      0.02%     99.95% # Writes before turning the bus around for reads
system.mem_ctrls.wrPerTurnAround::108-111            2      0.01%     99.96% # Writes before turning the bus around for reads
system.mem_ctrls.wrPerTurnAround::112-115            4      0.01%     99.97% # Writes before turning the bus around for reads
system.mem_ctrls.wrPerTurnAround::120-123            1      0.00%     99.98% # Writes before turning the bus around for reads
system.mem_ctrls.wrPerTurnAround::124-127            2      0.01%     99.98% # Writes before turning the bus around for reads
system.mem_ctrls.wrPerTurnAround::136-139            1      0.00%     99.99% # Writes before turning the bus around for reads
system.mem_ctrls.wrPerTurnAround::140-143            2      0.01%     99.99% # Writes before turning the bus around for reads
system.mem_ctrls.wrPerTurnAround::144-147            1      0.00%    100.00% # Writes before turning the bus around for reads
system.mem_ctrls.wrPerTurnAround::188-191            1      0.00%    100.00% # Writes before turning the bus around for reads
system.mem_ctrls.wrPerTurnAround::total         28884                       # Writes before turning the bus around for reads
system.mem_ctrls.totQLat                  46729189748                       # Total ticks spent queuing
system.mem_ctrls.totMemAccLat            134357764748                       # Total ticks spent from burst creation until serviced by the DRAM
system.mem_ctrls.totBusLat                23367620000                       # Total ticks spent in databus transfers
system.mem_ctrls.avgQLat                      9998.71                       # Average queueing delay per DRAM burst
system.mem_ctrls.avgBusLat                    5000.00                       # Average bus latency per DRAM burst
system.mem_ctrls.avgMemAccLat                28748.71                       # Average memory access latency per DRAM burst
system.mem_ctrls.avgRdBW                        61.88                       # Average DRAM read bandwidth in MiByte/s
system.mem_ctrls.avgWrBW                         7.12                       # Average achieved write bandwidth in MiByte/s
system.mem_ctrls.avgRdBWSys                     62.46                       # Average system read bandwidth in MiByte/s
system.mem_ctrls.avgWrBWSys                      7.20                       # Average system write bandwidth in MiByte/s
system.mem_ctrls.peakBW                      12800.00                       # Theoretical peak bandwidth in MiByte/s
system.mem_ctrls.busUtil                         0.54                       # Data bus utilization in percentage
system.mem_ctrls.busUtilRead                     0.48                       # Data bus utilization in percentage for reads
system.mem_ctrls.busUtilWrite                    0.06                       # Data bus utilization in percentage for writes
system.mem_ctrls.avgRdQLen                       2.17                       # Average read queue length when enqueuing
system.mem_ctrls.avgWrQLen                      24.95                       # Average write queue length when enqueuing
system.mem_ctrls.readRowHits                  3281077                       # Number of row buffer hits during reads
system.mem_ctrls.writeRowHits                  347624                       # Number of row buffer hits during writes
system.mem_ctrls.readRowHitRate                 70.21                       # Row buffer hit rate for reads
system.mem_ctrls.writeRowHitRate                64.66                       # Row buffer hit rate for writes
system.mem_ctrls.avgGap                     918711.56                       # Average gap between requests
system.mem_ctrls.pageHitRate                    69.63                       # Row buffer hit rate, read and write combined
system.mem_ctrls.memoryStateTime::IDLE   2539640696757                       # Time in different power states
system.mem_ctrls.memoryStateTime::REF    161402540000                       # Time in different power states
system.mem_ctrls.memoryStateTime::PRE_PDN            0                       # Time in different power states
system.mem_ctrls.memoryStateTime::ACT    2132497525743                       # Time in different power states
system.mem_ctrls.memoryStateTime::ACT_PDN            0                       # Time in different power states
system.mem_ctrls.actEnergy::0              4904618040                       # Energy for activate commands per rank (pJ)
system.mem_ctrls.actEnergy::1              7058288160                       # Energy for activate commands per rank (pJ)
system.mem_ctrls.preEnergy::0              2676130875                       # Energy for precharge commands per rank (pJ)
system.mem_ctrls.preEnergy::1              3851248500                       # Energy for precharge commands per rank (pJ)
system.mem_ctrls.readEnergy::0            16213626000                       # Energy for read commands per rank (pJ)
system.mem_ctrls.readEnergy::1            20239822200                       # Energy for read commands per rank (pJ)
system.mem_ctrls.writeEnergy::0            1547300880                       # Energy for write commands per rank (pJ)
system.mem_ctrls.writeEnergy::1            1936185120                       # Energy for write commands per rank (pJ)
system.mem_ctrls.refreshEnergy::0        315703368240                       # Energy for refresh commands per rank (pJ)
system.mem_ctrls.refreshEnergy::1        315703368240                       # Energy for refresh commands per rank (pJ)
system.mem_ctrls.actBackEnergy::0        1094300367705                       # Energy for active background per rank (pJ)
system.mem_ctrls.actBackEnergy::1        1189575657090                       # Energy for active background per rank (pJ)
system.mem_ctrls.preBackEnergy::0        1940211846000                       # Energy for precharge background per rank (pJ)
system.mem_ctrls.preBackEnergy::1        1856637030750                       # Energy for precharge background per rank (pJ)
system.mem_ctrls.totalEnergy::0          3375557257740                       # Total energy per rank (pJ)
system.mem_ctrls.totalEnergy::1          3395001600060                       # Total energy per rank (pJ)
system.mem_ctrls.averagePower::0           698.361188                       # Core power per rank (mW)
system.mem_ctrls.averagePower::1           702.383982                       # Core power per rank (mW)
system.membus.trans_dist::ReadReq             4772272                       # Transaction distribution
system.membus.trans_dist::ReadResp            4772259                       # Transaction distribution
system.membus.trans_dist::ReadRespWithInvalidate           13                       # Transaction distribution
system.membus.trans_dist::WriteReq              52870                       # Transaction distribution
system.membus.trans_dist::WriteResp             52870                       # Transaction distribution
system.membus.trans_dist::Writeback            499759                       # Transaction distribution
system.membus.trans_dist::WriteInvalidateReq        44256                       # Transaction distribution
system.membus.trans_dist::WriteInvalidateResp        44256                       # Transaction distribution
system.membus.trans_dist::UpgradeReq           124646                       # Transaction distribution
system.membus.trans_dist::SCUpgradeReq          76903                       # Transaction distribution
system.membus.trans_dist::UpgradeResp          201549                       # Transaction distribution
system.membus.trans_dist::SCUpgradeFailReq         1265                       # Transaction distribution
system.membus.trans_dist::UpgradeFailResp         1265                       # Transaction distribution
system.membus.trans_dist::ReadExReq            392170                       # Transaction distribution
system.membus.trans_dist::ReadExResp           392170                       # Transaction distribution
system.membus.pkt_count_system.iocache.mem_side::system.mem_ctrls.port        88784                       # Packet count per connected master and slave (bytes)
system.membus.pkt_count_system.iocache.mem_side::total        88784                       # Packet count per connected master and slave (bytes)
system.membus.pkt_count_system.cpu0.icache.mem_side::system.mem_ctrls.port      1403875                       # Packet count per connected master and slave (bytes)
system.membus.pkt_count_system.cpu0.icache.mem_side::total      1403875                       # Packet count per connected master and slave (bytes)
system.membus.pkt_count_system.cpu0.dcache.mem_side::system.bridge.slave        35878                       # Packet count per connected master and slave (bytes)
system.membus.pkt_count_system.cpu0.dcache.mem_side::system.mem_ctrls.port      5272014                       # Packet count per connected master and slave (bytes)
system.membus.pkt_count_system.cpu0.dcache.mem_side::total      5307892                       # Packet count per connected master and slave (bytes)
system.membus.pkt_count_system.cpu1.icache.mem_side::system.mem_ctrls.port       722392                       # Packet count per connected master and slave (bytes)
system.membus.pkt_count_system.cpu1.icache.mem_side::total       722392                       # Packet count per connected master and slave (bytes)
system.membus.pkt_count_system.cpu1.dcache.mem_side::system.bridge.slave        15610                       # Packet count per connected master and slave (bytes)
system.membus.pkt_count_system.cpu1.dcache.mem_side::system.mem_ctrls.port       514214                       # Packet count per connected master and slave (bytes)
system.membus.pkt_count_system.cpu1.dcache.mem_side::total       529824                       # Packet count per connected master and slave (bytes)
system.membus.pkt_count_system.cpu2.icache.mem_side::system.mem_ctrls.port      1143849                       # Packet count per connected master and slave (bytes)
system.membus.pkt_count_system.cpu2.icache.mem_side::total      1143849                       # Packet count per connected master and slave (bytes)
system.membus.pkt_count_system.cpu2.dcache.mem_side::system.bridge.slave        20980                       # Packet count per connected master and slave (bytes)
system.membus.pkt_count_system.cpu2.dcache.mem_side::system.mem_ctrls.port       658745                       # Packet count per connected master and slave (bytes)
system.membus.pkt_count_system.cpu2.dcache.mem_side::total       679725                       # Packet count per connected master and slave (bytes)
system.membus.pkt_count_system.cpu3.icache.mem_side::system.mem_ctrls.port       116789                       # Packet count per connected master and slave (bytes)
system.membus.pkt_count_system.cpu3.icache.mem_side::total       116789                       # Packet count per connected master and slave (bytes)
system.membus.pkt_count_system.cpu3.dcache.mem_side::system.bridge.slave         9950                       # Packet count per connected master and slave (bytes)
system.membus.pkt_count_system.cpu3.dcache.mem_side::system.mem_ctrls.port       113331                       # Packet count per connected master and slave (bytes)
system.membus.pkt_count_system.cpu3.dcache.mem_side::total       123281                       # Packet count per connected master and slave (bytes)
system.membus.pkt_count_system.cpu4.icache.mem_side::system.mem_ctrls.port       113760                       # Packet count per connected master and slave (bytes)
system.membus.pkt_count_system.cpu4.icache.mem_side::total       113760                       # Packet count per connected master and slave (bytes)
system.membus.pkt_count_system.cpu4.dcache.mem_side::system.bridge.slave         9754                       # Packet count per connected master and slave (bytes)
system.membus.pkt_count_system.cpu4.dcache.mem_side::system.mem_ctrls.port       156235                       # Packet count per connected master and slave (bytes)
system.membus.pkt_count_system.cpu4.dcache.mem_side::total       165989                       # Packet count per connected master and slave (bytes)
system.membus.pkt_count_system.cpu5.icache.mem_side::system.mem_ctrls.port        86965                       # Packet count per connected master and slave (bytes)
system.membus.pkt_count_system.cpu5.icache.mem_side::total        86965                       # Packet count per connected master and slave (bytes)
system.membus.pkt_count_system.cpu5.dcache.mem_side::system.bridge.slave         9584                       # Packet count per connected master and slave (bytes)
system.membus.pkt_count_system.cpu5.dcache.mem_side::system.mem_ctrls.port       108703                       # Packet count per connected master and slave (bytes)
system.membus.pkt_count_system.cpu5.dcache.mem_side::total       118287                       # Packet count per connected master and slave (bytes)
system.membus.pkt_count_system.cpu6.icache.mem_side::system.mem_ctrls.port        46028                       # Packet count per connected master and slave (bytes)
system.membus.pkt_count_system.cpu6.icache.mem_side::total        46028                       # Packet count per connected master and slave (bytes)
system.membus.pkt_count_system.cpu6.dcache.mem_side::system.bridge.slave         9556                       # Packet count per connected master and slave (bytes)
system.membus.pkt_count_system.cpu6.dcache.mem_side::system.mem_ctrls.port        60078                       # Packet count per connected master and slave (bytes)
system.membus.pkt_count_system.cpu6.dcache.mem_side::total        69634                       # Packet count per connected master and slave (bytes)
system.membus.pkt_count_system.cpu7.icache.mem_side::system.mem_ctrls.port        53953                       # Packet count per connected master and slave (bytes)
system.membus.pkt_count_system.cpu7.icache.mem_side::total        53953                       # Packet count per connected master and slave (bytes)
system.membus.pkt_count_system.cpu7.dcache.mem_side::system.bridge.slave         9562                       # Packet count per connected master and slave (bytes)
system.membus.pkt_count_system.cpu7.dcache.mem_side::system.mem_ctrls.port        83535                       # Packet count per connected master and slave (bytes)
system.membus.pkt_count_system.cpu7.dcache.mem_side::total        93097                       # Packet count per connected master and slave (bytes)
system.membus.pkt_count::total               10864124                       # Packet count per connected master and slave (bytes)
system.membus.pkt_size_system.iocache.mem_side::system.mem_ctrls.port      2836416                       # Cumulative packet size per connected master and slave (bytes)
system.membus.pkt_size_system.iocache.mem_side::total      2836416                       # Cumulative packet size per connected master and slave (bytes)
system.membus.pkt_size_system.cpu0.icache.mem_side::system.mem_ctrls.port     44923968                       # Cumulative packet size per connected master and slave (bytes)
system.membus.pkt_size_system.cpu0.icache.mem_side::total     44923968                       # Cumulative packet size per connected master and slave (bytes)
system.membus.pkt_size_system.cpu0.dcache.mem_side::system.bridge.slave        76370                       # Cumulative packet size per connected master and slave (bytes)
system.membus.pkt_size_system.cpu0.dcache.mem_side::system.mem_ctrls.port    174266944                       # Cumulative packet size per connected master and slave (bytes)
system.membus.pkt_size_system.cpu0.dcache.mem_side::total    174343314                       # Cumulative packet size per connected master and slave (bytes)
system.membus.pkt_size_system.cpu1.icache.mem_side::system.mem_ctrls.port     23116544                       # Cumulative packet size per connected master and slave (bytes)
system.membus.pkt_size_system.cpu1.icache.mem_side::total     23116544                       # Cumulative packet size per connected master and slave (bytes)
system.membus.pkt_size_system.cpu1.dcache.mem_side::system.bridge.slave        62440                       # Cumulative packet size per connected master and slave (bytes)
system.membus.pkt_size_system.cpu1.dcache.mem_side::system.mem_ctrls.port     11867200                       # Cumulative packet size per connected master and slave (bytes)
system.membus.pkt_size_system.cpu1.dcache.mem_side::total     11929640                       # Cumulative packet size per connected master and slave (bytes)
system.membus.pkt_size_system.cpu2.icache.mem_side::system.mem_ctrls.port     36601984                       # Cumulative packet size per connected master and slave (bytes)
system.membus.pkt_size_system.cpu2.icache.mem_side::total     36601984                       # Cumulative packet size per connected master and slave (bytes)
system.membus.pkt_size_system.cpu2.dcache.mem_side::system.bridge.slave        58100                       # Cumulative packet size per connected master and slave (bytes)
system.membus.pkt_size_system.cpu2.dcache.mem_side::system.mem_ctrls.port     18688768                       # Cumulative packet size per connected master and slave (bytes)
system.membus.pkt_size_system.cpu2.dcache.mem_side::total     18746868                       # Cumulative packet size per connected master and slave (bytes)
system.membus.pkt_size_system.cpu3.icache.mem_side::system.mem_ctrls.port      3737088                       # Cumulative packet size per connected master and slave (bytes)
system.membus.pkt_size_system.cpu3.icache.mem_side::total      3737088                       # Cumulative packet size per connected master and slave (bytes)
system.membus.pkt_size_system.cpu3.dcache.mem_side::system.bridge.slave        39112                       # Cumulative packet size per connected master and slave (bytes)
system.membus.pkt_size_system.cpu3.dcache.mem_side::system.mem_ctrls.port      2329920                       # Cumulative packet size per connected master and slave (bytes)
system.membus.pkt_size_system.cpu3.dcache.mem_side::total      2369032                       # Cumulative packet size per connected master and slave (bytes)
system.membus.pkt_size_system.cpu4.icache.mem_side::system.mem_ctrls.port      3640192                       # Cumulative packet size per connected master and slave (bytes)
system.membus.pkt_size_system.cpu4.icache.mem_side::total      3640192                       # Cumulative packet size per connected master and slave (bytes)
system.membus.pkt_size_system.cpu4.dcache.mem_side::system.bridge.slave        38552                       # Cumulative packet size per connected master and slave (bytes)
system.membus.pkt_size_system.cpu4.dcache.mem_side::system.mem_ctrls.port      4169408                       # Cumulative packet size per connected master and slave (bytes)
system.membus.pkt_size_system.cpu4.dcache.mem_side::total      4207960                       # Cumulative packet size per connected master and slave (bytes)
system.membus.pkt_size_system.cpu5.icache.mem_side::system.mem_ctrls.port      2782272                       # Cumulative packet size per connected master and slave (bytes)
system.membus.pkt_size_system.cpu5.icache.mem_side::total      2782272                       # Cumulative packet size per connected master and slave (bytes)
system.membus.pkt_size_system.cpu5.dcache.mem_side::system.bridge.slave        38315                       # Cumulative packet size per connected master and slave (bytes)
system.membus.pkt_size_system.cpu5.dcache.mem_side::system.mem_ctrls.port      2372416                       # Cumulative packet size per connected master and slave (bytes)
system.membus.pkt_size_system.cpu5.dcache.mem_side::total      2410731                       # Cumulative packet size per connected master and slave (bytes)
system.membus.pkt_size_system.cpu6.icache.mem_side::system.mem_ctrls.port      1472896                       # Cumulative packet size per connected master and slave (bytes)
system.membus.pkt_size_system.cpu6.icache.mem_side::total      1472896                       # Cumulative packet size per connected master and slave (bytes)
system.membus.pkt_size_system.cpu6.dcache.mem_side::system.bridge.slave        38224                       # Cumulative packet size per connected master and slave (bytes)
system.membus.pkt_size_system.cpu6.dcache.mem_side::system.mem_ctrls.port       592320                       # Cumulative packet size per connected master and slave (bytes)
system.membus.pkt_size_system.cpu6.dcache.mem_side::total       630544                       # Cumulative packet size per connected master and slave (bytes)
system.membus.pkt_size_system.cpu7.icache.mem_side::system.mem_ctrls.port      1726464                       # Cumulative packet size per connected master and slave (bytes)
system.membus.pkt_size_system.cpu7.icache.mem_side::total      1726464                       # Cumulative packet size per connected master and slave (bytes)
system.membus.pkt_size_system.cpu7.dcache.mem_side::system.bridge.slave        38248                       # Cumulative packet size per connected master and slave (bytes)
system.membus.pkt_size_system.cpu7.dcache.mem_side::system.mem_ctrls.port      1593216                       # Cumulative packet size per connected master and slave (bytes)
system.membus.pkt_size_system.cpu7.dcache.mem_side::total      1631464                       # Cumulative packet size per connected master and slave (bytes)
system.membus.pkt_size::total               337107377                       # Cumulative packet size per connected master and slave (bytes)
system.membus.snoops                           564399                       # Total snoops (count)
system.membus.snoop_fanout::samples           5903717                       # Request fanout histogram
system.membus.snoop_fanout::mean                   16                       # Request fanout histogram
system.membus.snoop_fanout::stdev                   0                       # Request fanout histogram
system.membus.snoop_fanout::underflows              0      0.00%      0.00% # Request fanout histogram
system.membus.snoop_fanout::0                       0      0.00%      0.00% # Request fanout histogram
system.membus.snoop_fanout::1                       0      0.00%      0.00% # Request fanout histogram
system.membus.snoop_fanout::2                       0      0.00%      0.00% # Request fanout histogram
system.membus.snoop_fanout::3                       0      0.00%      0.00% # Request fanout histogram
system.membus.snoop_fanout::4                       0      0.00%      0.00% # Request fanout histogram
system.membus.snoop_fanout::5                       0      0.00%      0.00% # Request fanout histogram
system.membus.snoop_fanout::6                       0      0.00%      0.00% # Request fanout histogram
system.membus.snoop_fanout::7                       0      0.00%      0.00% # Request fanout histogram
system.membus.snoop_fanout::8                       0      0.00%      0.00% # Request fanout histogram
system.membus.snoop_fanout::9                       0      0.00%      0.00% # Request fanout histogram
system.membus.snoop_fanout::10                      0      0.00%      0.00% # Request fanout histogram
system.membus.snoop_fanout::11                      0      0.00%      0.00% # Request fanout histogram
system.membus.snoop_fanout::12                      0      0.00%      0.00% # Request fanout histogram
system.membus.snoop_fanout::13                      0      0.00%      0.00% # Request fanout histogram
system.membus.snoop_fanout::14                      0      0.00%      0.00% # Request fanout histogram
system.membus.snoop_fanout::15                      0      0.00%      0.00% # Request fanout histogram
system.membus.snoop_fanout::16                5903717    100.00%    100.00% # Request fanout histogram
system.membus.snoop_fanout::17                      0      0.00%    100.00% # Request fanout histogram
system.membus.snoop_fanout::overflows               0      0.00%    100.00% # Request fanout histogram
system.membus.snoop_fanout::min_value              16                       # Request fanout histogram
system.membus.snoop_fanout::max_value              16                       # Request fanout histogram
system.membus.snoop_fanout::total             5903717                       # Request fanout histogram
system.membus.reqLayer0.occupancy           113311992                       # Layer occupancy (ticks)
system.membus.reqLayer0.utilization               0.0                       # Layer utilization (%)
system.membus.reqLayer1.occupancy         10258896430                       # Layer occupancy (ticks)
system.membus.reqLayer1.utilization               0.2                       # Layer utilization (%)
system.membus.respLayer1.occupancy           46155236                       # Layer occupancy (ticks)
system.membus.respLayer1.utilization              0.0                       # Layer utilization (%)
system.membus.respLayer2.occupancy         6576013746                       # Layer occupancy (ticks)
system.membus.respLayer2.utilization              0.1                       # Layer utilization (%)
system.membus.respLayer3.occupancy        23262305427                       # Layer occupancy (ticks)
system.membus.respLayer3.utilization              0.5                       # Layer utilization (%)
system.membus.respLayer4.occupancy         3383742249                       # Layer occupancy (ticks)
system.membus.respLayer4.utilization              0.1                       # Layer utilization (%)
system.membus.respLayer5.occupancy         2448793338                       # Layer occupancy (ticks)
system.membus.respLayer5.utilization              0.1                       # Layer utilization (%)
system.membus.respLayer6.occupancy         5350865499                       # Layer occupancy (ticks)
system.membus.respLayer6.utilization              0.1                       # Layer utilization (%)
system.membus.respLayer7.occupancy         2851624323                       # Layer occupancy (ticks)
system.membus.respLayer7.utilization              0.1                       # Layer utilization (%)
system.membus.respLayer8.occupancy          547507500                       # Layer occupancy (ticks)
system.membus.respLayer8.utilization              0.0                       # Layer utilization (%)
system.membus.respLayer9.occupancy          548726379                       # Layer occupancy (ticks)
system.membus.respLayer9.utilization              0.0                       # Layer utilization (%)
system.membus.respLayer10.occupancy         533162250                       # Layer occupancy (ticks)
system.membus.respLayer10.utilization             0.0                       # Layer utilization (%)
system.membus.respLayer11.occupancy         715672611                       # Layer occupancy (ticks)
system.membus.respLayer11.utilization             0.0                       # Layer utilization (%)
system.membus.respLayer12.occupancy         407771500                       # Layer occupancy (ticks)
system.membus.respLayer12.utilization             0.0                       # Layer utilization (%)
system.membus.respLayer13.occupancy         529809626                       # Layer occupancy (ticks)
system.membus.respLayer13.utilization             0.0                       # Layer utilization (%)
system.membus.respLayer14.occupancy         216317500                       # Layer occupancy (ticks)
system.membus.respLayer14.utilization             0.0                       # Layer utilization (%)
system.membus.respLayer15.occupancy         333402582                       # Layer occupancy (ticks)
system.membus.respLayer15.utilization             0.0                       # Layer utilization (%)
system.membus.respLayer16.occupancy         253533500                       # Layer occupancy (ticks)
system.membus.respLayer16.utilization             0.0                       # Layer utilization (%)
system.membus.respLayer17.occupancy         402657744                       # Layer occupancy (ticks)
system.membus.respLayer17.utilization             0.0                       # Layer utilization (%)
system.iocache.tags.replacements                44433                       # number of replacements
system.iocache.tags.tagsinuse                1.433774                       # Cycle average of tags in use
system.iocache.tags.total_refs                      0                       # Total number of references to valid blocks.
system.iocache.tags.sampled_refs                44433                       # Sample count of references to valid blocks.
system.iocache.tags.avg_refs                        0                       # Average number of references to valid blocks.
system.iocache.tags.warmup_cycle         4380478808000                       # Cycle when the warmup percentage was hit.
system.iocache.tags.occ_blocks::tsunami.ide     1.433774                       # Average occupied blocks per requestor
system.iocache.tags.occ_percent::tsunami.ide     0.089611                       # Average percentage of cache occupancy
system.iocache.tags.occ_percent::total       0.089611                       # Average percentage of cache occupancy
system.iocache.tags.occ_task_id_blocks::1023           16                       # Occupied blocks per task id
system.iocache.tags.age_task_id_blocks_1023::4           16                       # Occupied blocks per task id
system.iocache.tags.occ_task_id_percent::1023            1                       # Percentage of cache occupancy per task id
system.iocache.tags.tag_accesses               400185                       # Number of tag accesses
system.iocache.tags.data_accesses              400185                       # Number of data accesses
system.iocache.WriteInvalidateReq_hits::tsunami.ide        44256                       # number of WriteInvalidateReq hits
system.iocache.WriteInvalidateReq_hits::total        44256                       # number of WriteInvalidateReq hits
system.iocache.ReadReq_misses::tsunami.ide          209                       # number of ReadReq misses
system.iocache.ReadReq_misses::total              209                       # number of ReadReq misses
system.iocache.demand_misses::tsunami.ide          209                       # number of demand (read+write) misses
system.iocache.demand_misses::total               209                       # number of demand (read+write) misses
system.iocache.overall_misses::tsunami.ide          209                       # number of overall misses
system.iocache.overall_misses::total              209                       # number of overall misses
system.iocache.ReadReq_miss_latency::tsunami.ide     33785354                       # number of ReadReq miss cycles
system.iocache.ReadReq_miss_latency::total     33785354                       # number of ReadReq miss cycles
system.iocache.demand_miss_latency::tsunami.ide     33785354                       # number of demand (read+write) miss cycles
system.iocache.demand_miss_latency::total     33785354                       # number of demand (read+write) miss cycles
system.iocache.overall_miss_latency::tsunami.ide     33785354                       # number of overall miss cycles
system.iocache.overall_miss_latency::total     33785354                       # number of overall miss cycles
system.iocache.ReadReq_accesses::tsunami.ide          209                       # number of ReadReq accesses(hits+misses)
system.iocache.ReadReq_accesses::total            209                       # number of ReadReq accesses(hits+misses)
system.iocache.WriteInvalidateReq_accesses::tsunami.ide        44256                       # number of WriteInvalidateReq accesses(hits+misses)
system.iocache.WriteInvalidateReq_accesses::total        44256                       # number of WriteInvalidateReq accesses(hits+misses)
system.iocache.demand_accesses::tsunami.ide          209                       # number of demand (read+write) accesses
system.iocache.demand_accesses::total             209                       # number of demand (read+write) accesses
system.iocache.overall_accesses::tsunami.ide          209                       # number of overall (read+write) accesses
system.iocache.overall_accesses::total            209                       # number of overall (read+write) accesses
system.iocache.ReadReq_miss_rate::tsunami.ide            1                       # miss rate for ReadReq accesses
system.iocache.ReadReq_miss_rate::total             1                       # miss rate for ReadReq accesses
system.iocache.demand_miss_rate::tsunami.ide            1                       # miss rate for demand accesses
system.iocache.demand_miss_rate::total              1                       # miss rate for demand accesses
system.iocache.overall_miss_rate::tsunami.ide            1                       # miss rate for overall accesses
system.iocache.overall_miss_rate::total             1                       # miss rate for overall accesses
system.iocache.ReadReq_avg_miss_latency::tsunami.ide 161652.411483                       # average ReadReq miss latency
system.iocache.ReadReq_avg_miss_latency::total 161652.411483                       # average ReadReq miss latency
system.iocache.demand_avg_miss_latency::tsunami.ide 161652.411483                       # average overall miss latency
system.iocache.demand_avg_miss_latency::total 161652.411483                       # average overall miss latency
system.iocache.overall_avg_miss_latency::tsunami.ide 161652.411483                       # average overall miss latency
system.iocache.overall_avg_miss_latency::total 161652.411483                       # average overall miss latency
system.iocache.blocked_cycles::no_mshrs           442                       # number of cycles access was blocked
system.iocache.blocked_cycles::no_targets            0                       # number of cycles access was blocked
system.iocache.blocked::no_mshrs                   45                       # number of cycles access was blocked
system.iocache.blocked::no_targets                  0                       # number of cycles access was blocked
system.iocache.avg_blocked_cycles::no_mshrs     9.822222                       # average number of cycles each access was blocked
system.iocache.avg_blocked_cycles::no_targets          nan                       # average number of cycles each access was blocked
system.iocache.fast_writes                      44256                       # number of fast writes performed
system.iocache.cache_copies                         0                       # number of cache copies performed
system.iocache.ReadReq_mshr_misses::tsunami.ide          209                       # number of ReadReq MSHR misses
system.iocache.ReadReq_mshr_misses::total          209                       # number of ReadReq MSHR misses
system.iocache.WriteInvalidateReq_mshr_misses::tsunami.ide        44256                       # number of WriteInvalidateReq MSHR misses
system.iocache.WriteInvalidateReq_mshr_misses::total        44256                       # number of WriteInvalidateReq MSHR misses
system.iocache.demand_mshr_misses::tsunami.ide          209                       # number of demand (read+write) MSHR misses
system.iocache.demand_mshr_misses::total          209                       # number of demand (read+write) MSHR misses
system.iocache.overall_mshr_misses::tsunami.ide          209                       # number of overall MSHR misses
system.iocache.overall_mshr_misses::total          209                       # number of overall MSHR misses
system.iocache.ReadReq_mshr_miss_latency::tsunami.ide     22915854                       # number of ReadReq MSHR miss cycles
system.iocache.ReadReq_mshr_miss_latency::total     22915854                       # number of ReadReq MSHR miss cycles
system.iocache.WriteInvalidateReq_mshr_miss_latency::tsunami.ide   2736478982                       # number of WriteInvalidateReq MSHR miss cycles
system.iocache.WriteInvalidateReq_mshr_miss_latency::total   2736478982                       # number of WriteInvalidateReq MSHR miss cycles
system.iocache.demand_mshr_miss_latency::tsunami.ide     22915854                       # number of demand (read+write) MSHR miss cycles
system.iocache.demand_mshr_miss_latency::total     22915854                       # number of demand (read+write) MSHR miss cycles
system.iocache.overall_mshr_miss_latency::tsunami.ide     22915854                       # number of overall MSHR miss cycles
system.iocache.overall_mshr_miss_latency::total     22915854                       # number of overall MSHR miss cycles
system.iocache.ReadReq_mshr_miss_rate::tsunami.ide            1                       # mshr miss rate for ReadReq accesses
system.iocache.ReadReq_mshr_miss_rate::total            1                       # mshr miss rate for ReadReq accesses
system.iocache.WriteInvalidateReq_mshr_miss_rate::tsunami.ide            1                       # mshr miss rate for WriteInvalidateReq accesses
system.iocache.WriteInvalidateReq_mshr_miss_rate::total            1                       # mshr miss rate for WriteInvalidateReq accesses
system.iocache.demand_mshr_miss_rate::tsunami.ide            1                       # mshr miss rate for demand accesses
system.iocache.demand_mshr_miss_rate::total            1                       # mshr miss rate for demand accesses
system.iocache.overall_mshr_miss_rate::tsunami.ide            1                       # mshr miss rate for overall accesses
system.iocache.overall_mshr_miss_rate::total            1                       # mshr miss rate for overall accesses
system.iocache.ReadReq_avg_mshr_miss_latency::tsunami.ide 109645.234450                       # average ReadReq mshr miss latency
system.iocache.ReadReq_avg_mshr_miss_latency::total 109645.234450                       # average ReadReq mshr miss latency
system.iocache.WriteInvalidateReq_avg_mshr_miss_latency::tsunami.ide 61832.948798                       # average WriteInvalidateReq mshr miss latency
system.iocache.WriteInvalidateReq_avg_mshr_miss_latency::total 61832.948798                       # average WriteInvalidateReq mshr miss latency
system.iocache.demand_avg_mshr_miss_latency::tsunami.ide 109645.234450                       # average overall mshr miss latency
system.iocache.demand_avg_mshr_miss_latency::total 109645.234450                       # average overall mshr miss latency
system.iocache.overall_avg_mshr_miss_latency::tsunami.ide 109645.234450                       # average overall mshr miss latency
system.iocache.overall_avg_mshr_miss_latency::total 109645.234450                       # average overall mshr miss latency
system.iocache.no_allocate_misses                   0                       # Number of misses that were no-allocate
system.disk0.dma_read_full_pages                    0                       # Number of full page size DMA reads (not PRD).
system.disk0.dma_read_bytes                      4096                       # Number of bytes transfered via DMA reads (not PRD).
system.disk0.dma_read_txs                           1                       # Number of DMA read transactions (not PRD).
system.disk0.dma_write_full_pages                 326                       # Number of full page size DMA writes.
system.disk0.dma_write_bytes                  2824192                       # Number of bytes transfered via DMA writes.
system.disk0.dma_write_txs                        365                       # Number of DMA write transactions.
system.disk2.dma_read_full_pages                    0                       # Number of full page size DMA reads (not PRD).
system.disk2.dma_read_bytes                         0                       # Number of bytes transfered via DMA reads (not PRD).
system.disk2.dma_read_txs                           0                       # Number of DMA read transactions (not PRD).
system.disk2.dma_write_full_pages                   1                       # Number of full page size DMA writes.
system.disk2.dma_write_bytes                     8192                       # Number of bytes transfered via DMA writes.
system.disk2.dma_write_txs                          1                       # Number of DMA write transactions.
system.cpu_voltage_domain.voltage                   1                       # Voltage in Volts
system.cpu_clk_domain.clock                     10000                       # Clock period in ticks
system.cpu0.dtb.fetch_hits                          0                       # ITB hits
system.cpu0.dtb.fetch_misses                        0                       # ITB misses
system.cpu0.dtb.fetch_acv                           0                       # ITB acv
system.cpu0.dtb.fetch_accesses                      0                       # ITB accesses
system.cpu0.dtb.read_hits                    12123462                       # DTB read hits
system.cpu0.dtb.read_misses                        43                       # DTB read misses
system.cpu0.dtb.read_acv                            0                       # DTB read access violations
system.cpu0.dtb.read_accesses                    1040                       # DTB read accesses
system.cpu0.dtb.write_hits                    5216827                       # DTB write hits
[...]
system.cpu7.dcache.tags.tagsinuse          854.330540                       # Cycle average of tags in use
system.cpu7.dcache.tags.total_refs              75718                       # Total number of references to valid blocks.
system.cpu7.dcache.tags.sampled_refs              812                       # Sample count of references to valid blocks.
system.cpu7.dcache.tags.avg_refs            93.248768                       # Average number of references to valid blocks.
system.cpu7.dcache.tags.warmup_cycle                0                       # Cycle when the warmup percentage was hit.
system.cpu7.dcache.tags.occ_blocks::cpu7.data   854.330540                       # Average occupied blocks per requestor
system.cpu7.dcache.tags.occ_percent::cpu7.data     0.834307                       # Average percentage of cache occupancy
system.cpu7.dcache.tags.occ_percent::total     0.834307                       # Average percentage of cache occupancy
system.cpu7.dcache.tags.occ_task_id_blocks::1024          806                       # Occupied blocks per task id
system.cpu7.dcache.tags.age_task_id_blocks_1024::2            1                       # Occupied blocks per task id
system.cpu7.dcache.tags.age_task_id_blocks_1024::3            3                       # Occupied blocks per task id
system.cpu7.dcache.tags.age_task_id_blocks_1024::4          802                       # Occupied blocks per task id
system.cpu7.dcache.tags.occ_task_id_percent::1024     0.787109                       # Percentage of cache occupancy per task id
system.cpu7.dcache.tags.tag_accesses            23361                       # Number of tag accesses
system.cpu7.dcache.tags.data_accesses           23361                       # Number of data accesses
system.cpu7.dcache.ReadReq_hits::cpu7.data         7379                       # number of ReadReq hits
system.cpu7.dcache.ReadReq_hits::total           7379                       # number of ReadReq hits
system.cpu7.dcache.WriteReq_hits::cpu7.data         4026                       # number of WriteReq hits
system.cpu7.dcache.WriteReq_hits::total          4026                       # number of WriteReq hits
system.cpu7.dcache.LoadLockedReq_hits::cpu7.data           81                       # number of LoadLockedReq hits
system.cpu7.dcache.LoadLockedReq_hits::total           81                       # number of LoadLockedReq hits
system.cpu7.dcache.StoreCondReq_hits::cpu7.data           66                       # number of StoreCondReq hits
system.cpu7.dcache.StoreCondReq_hits::total           66                       # number of StoreCondReq hits
system.cpu7.dcache.demand_hits::cpu7.data        11405                       # number of demand (read+write) hits
system.cpu7.dcache.demand_hits::total           11405                       # number of demand (read+write) hits
system.cpu7.dcache.overall_hits::cpu7.data        11405                       # number of overall hits
system.cpu7.dcache.overall_hits::total          11405                       # number of overall hits
system.cpu7.dcache.ReadReq_misses::cpu7.data           46                       # number of ReadReq misses
system.cpu7.dcache.ReadReq_misses::total           46                       # number of ReadReq misses
system.cpu7.dcache.WriteReq_misses::cpu7.data           24                       # number of WriteReq misses
system.cpu7.dcache.WriteReq_misses::total           24                       # number of WriteReq misses
system.cpu7.dcache.LoadLockedReq_misses::cpu7.data            8                       # number of LoadLockedReq misses
system.cpu7.dcache.LoadLockedReq_misses::total            8                       # number of LoadLockedReq misses
system.cpu7.dcache.StoreCondReq_misses::cpu7.data           20                       # number of StoreCondReq misses
system.cpu7.dcache.StoreCondReq_misses::total           20                       # number of StoreCondReq misses
system.cpu7.dcache.demand_misses::cpu7.data           70                       # number of demand (read+write) misses
system.cpu7.dcache.demand_misses::total            70                       # number of demand (read+write) misses
system.cpu7.dcache.overall_misses::cpu7.data           70                       # number of overall misses
system.cpu7.dcache.overall_misses::total           70                       # number of overall misses
system.cpu7.dcache.ReadReq_miss_latency::cpu7.data      3084249                       # number of ReadReq miss cycles
system.cpu7.dcache.ReadReq_miss_latency::total      3084249                       # number of ReadReq miss cycles
system.cpu7.dcache.WriteReq_miss_latency::cpu7.data      1658982                       # number of WriteReq miss cycles
system.cpu7.dcache.WriteReq_miss_latency::total      1658982                       # number of WriteReq miss cycles
system.cpu7.dcache.LoadLockedReq_miss_latency::cpu7.data       617500                       # number of LoadLockedReq miss cycles
system.cpu7.dcache.LoadLockedReq_miss_latency::total       617500                       # number of LoadLockedReq miss cycles
system.cpu7.dcache.StoreCondReq_miss_latency::cpu7.data      1016989                       # number of StoreCondReq miss cycles
system.cpu7.dcache.StoreCondReq_miss_latency::total      1016989                       # number of StoreCondReq miss cycles
system.cpu7.dcache.StoreCondFailReq_miss_latency::cpu7.data        72000                       # number of StoreCondFailReq miss cycles
system.cpu7.dcache.StoreCondFailReq_miss_latency::total        72000                       # number of StoreCondFailReq miss cycles
system.cpu7.dcache.demand_miss_latency::cpu7.data      4743231                       # number of demand (read+write) miss cycles
system.cpu7.dcache.demand_miss_latency::total      4743231                       # number of demand (read+write) miss cycles
system.cpu7.dcache.overall_miss_latency::cpu7.data      4743231                       # number of overall miss cycles
system.cpu7.dcache.overall_miss_latency::total      4743231                       # number of overall miss cycles
system.cpu7.dcache.ReadReq_accesses::cpu7.data         7425                       # number of ReadReq accesses(hits+misses)
system.cpu7.dcache.ReadReq_accesses::total         7425                       # number of ReadReq accesses(hits+misses)
system.cpu7.dcache.WriteReq_accesses::cpu7.data         4050                       # number of WriteReq accesses(hits+misses)
system.cpu7.dcache.WriteReq_accesses::total         4050                       # number of WriteReq accesses(hits+misses)
system.cpu7.dcache.LoadLockedReq_accesses::cpu7.data           89                       # number of LoadLockedReq accesses(hits+misses)
system.cpu7.dcache.LoadLockedReq_accesses::total           89                       # number of LoadLockedReq accesses(hits+misses)
system.cpu7.dcache.StoreCondReq_accesses::cpu7.data           86                       # number of StoreCondReq accesses(hits+misses)
system.cpu7.dcache.StoreCondReq_accesses::total           86                       # number of StoreCondReq accesses(hits+misses)
system.cpu7.dcache.demand_accesses::cpu7.data        11475                       # number of demand (read+write) accesses
system.cpu7.dcache.demand_accesses::total        11475                       # number of demand (read+write) accesses
system.cpu7.dcache.overall_accesses::cpu7.data        11475                       # number of overall (read+write) accesses
system.cpu7.dcache.overall_accesses::total        11475                       # number of overall (read+write) accesses
system.cpu7.dcache.ReadReq_miss_rate::cpu7.data     0.006195                       # miss rate for ReadReq accesses
system.cpu7.dcache.ReadReq_miss_rate::total     0.006195                       # miss rate for ReadReq accesses
system.cpu7.dcache.WriteReq_miss_rate::cpu7.data     0.005926                       # miss rate for WriteReq accesses
system.cpu7.dcache.WriteReq_miss_rate::total     0.005926                       # miss rate for WriteReq accesses
system.cpu7.dcache.LoadLockedReq_miss_rate::cpu7.data     0.089888                       # miss rate for LoadLockedReq accesses
system.cpu7.dcache.LoadLockedReq_miss_rate::total     0.089888                       # miss rate for LoadLockedReq accesses
system.cpu7.dcache.StoreCondReq_miss_rate::cpu7.data     0.232558                       # miss rate for StoreCondReq accesses
system.cpu7.dcache.StoreCondReq_miss_rate::total     0.232558                       # miss rate for StoreCondReq accesses
system.cpu7.dcache.demand_miss_rate::cpu7.data     0.006100                       # miss rate for demand accesses
system.cpu7.dcache.demand_miss_rate::total     0.006100                       # miss rate for demand accesses
system.cpu7.dcache.overall_miss_rate::cpu7.data     0.006100                       # miss rate for overall accesses
system.cpu7.dcache.overall_miss_rate::total     0.006100                       # miss rate for overall accesses
system.cpu7.dcache.ReadReq_avg_miss_latency::cpu7.data 67048.891304                       # average ReadReq miss latency
system.cpu7.dcache.ReadReq_avg_miss_latency::total 67048.891304                       # average ReadReq miss latency
system.cpu7.dcache.WriteReq_avg_miss_latency::cpu7.data 69124.250000                       # average WriteReq miss latency
system.cpu7.dcache.WriteReq_avg_miss_latency::total 69124.250000                       # average WriteReq miss latency
system.cpu7.dcache.LoadLockedReq_avg_miss_latency::cpu7.data 77187.500000                       # average LoadLockedReq miss latency
system.cpu7.dcache.LoadLockedReq_avg_miss_latency::total 77187.500000                       # average LoadLockedReq miss latency
system.cpu7.dcache.StoreCondReq_avg_miss_latency::cpu7.data 50849.450000                       # average StoreCondReq miss latency
system.cpu7.dcache.StoreCondReq_avg_miss_latency::total 50849.450000                       # average StoreCondReq miss latency
system.cpu7.dcache.StoreCondFailReq_avg_miss_latency::cpu7.data          inf                       # average StoreCondFailReq miss latency
system.cpu7.dcache.StoreCondFailReq_avg_miss_latency::total          inf                       # average StoreCondFailReq miss latency
system.cpu7.dcache.demand_avg_miss_latency::cpu7.data 67760.442857                       # average overall miss latency
system.cpu7.dcache.demand_avg_miss_latency::total 67760.442857                       # average overall miss latency
system.cpu7.dcache.overall_avg_miss_latency::cpu7.data 67760.442857                       # average overall miss latency
system.cpu7.dcache.overall_avg_miss_latency::total 67760.442857                       # average overall miss latency
system.cpu7.dcache.blocked_cycles::no_mshrs            0                       # number of cycles access was blocked
system.cpu7.dcache.blocked_cycles::no_targets            0                       # number of cycles access was blocked
system.cpu7.dcache.blocked::no_mshrs                0                       # number of cycles access was blocked
system.cpu7.dcache.blocked::no_targets              0                       # number of cycles access was blocked
system.cpu7.dcache.avg_blocked_cycles::no_mshrs          nan                       # average number of cycles each access was blocked
system.cpu7.dcache.avg_blocked_cycles::no_targets          nan                       # average number of cycles each access was blocked
system.cpu7.dcache.fast_writes                      0                       # number of fast writes performed
system.cpu7.dcache.cache_copies                     0                       # number of cache copies performed
system.cpu7.dcache.writebacks::writebacks            2                       # number of writebacks
system.cpu7.dcache.writebacks::total                2                       # number of writebacks
system.cpu7.dcache.ReadReq_mshr_misses::cpu7.data           46                       # number of ReadReq MSHR misses
system.cpu7.dcache.ReadReq_mshr_misses::total           46                       # number of ReadReq MSHR misses
system.cpu7.dcache.WriteReq_mshr_misses::cpu7.data           24                       # number of WriteReq MSHR misses
system.cpu7.dcache.WriteReq_mshr_misses::total           24                       # number of WriteReq MSHR misses
system.cpu7.dcache.LoadLockedReq_mshr_misses::cpu7.data            8                       # number of LoadLockedReq MSHR misses
system.cpu7.dcache.LoadLockedReq_mshr_misses::total            8                       # number of LoadLockedReq MSHR misses
system.cpu7.dcache.StoreCondReq_mshr_misses::cpu7.data           19                       # number of StoreCondReq MSHR misses
system.cpu7.dcache.StoreCondReq_mshr_misses::total           19                       # number of StoreCondReq MSHR misses
system.cpu7.dcache.demand_mshr_misses::cpu7.data           70                       # number of demand (read+write) MSHR misses
system.cpu7.dcache.demand_mshr_misses::total           70                       # number of demand (read+write) MSHR misses
system.cpu7.dcache.overall_mshr_misses::cpu7.data           70                       # number of overall MSHR misses
system.cpu7.dcache.overall_mshr_misses::total           70                       # number of overall MSHR misses
system.cpu7.dcache.ReadReq_mshr_miss_latency::cpu7.data      2053751                       # number of ReadReq MSHR miss cycles
system.cpu7.dcache.ReadReq_mshr_miss_latency::total      2053751                       # number of ReadReq MSHR miss cycles
system.cpu7.dcache.WriteReq_mshr_miss_latency::cpu7.data       891018                       # number of WriteReq MSHR miss cycles
system.cpu7.dcache.WriteReq_mshr_miss_latency::total       891018                       # number of WriteReq MSHR miss cycles
system.cpu7.dcache.LoadLockedReq_mshr_miss_latency::cpu7.data       417500                       # number of LoadLockedReq MSHR miss cycles
system.cpu7.dcache.LoadLockedReq_mshr_miss_latency::total       417500                       # number of LoadLockedReq MSHR miss cycles
system.cpu7.dcache.StoreCondReq_mshr_miss_latency::cpu7.data       501011                       # number of StoreCondReq MSHR miss cycles
system.cpu7.dcache.StoreCondReq_mshr_miss_latency::total       501011                       # number of StoreCondReq MSHR miss cycles
system.cpu7.dcache.StoreCondFailReq_mshr_miss_latency::cpu7.data        50000                       # number of StoreCondFailReq MSHR miss cycles
system.cpu7.dcache.StoreCondFailReq_mshr_miss_latency::total        50000                       # number of StoreCondFailReq MSHR miss cycles
system.cpu7.dcache.demand_mshr_miss_latency::cpu7.data      2944769                       # number of demand (read+write) MSHR miss cycles
system.cpu7.dcache.demand_mshr_miss_latency::total      2944769                       # number of demand (read+write) MSHR miss cycles
system.cpu7.dcache.overall_mshr_miss_latency::cpu7.data      2944769                       # number of overall MSHR miss cycles
system.cpu7.dcache.overall_mshr_miss_latency::total      2944769                       # number of overall MSHR miss cycles
system.cpu7.dcache.WriteReq_mshr_uncacheable_latency::cpu7.data      5500000                       # number of WriteReq MSHR uncacheable cycles
system.cpu7.dcache.WriteReq_mshr_uncacheable_latency::total      5500000                       # number of WriteReq MSHR uncacheable cycles
system.cpu7.dcache.overall_mshr_uncacheable_latency::cpu7.data      5500000                       # number of overall MSHR uncacheable cycles
system.cpu7.dcache.overall_mshr_uncacheable_latency::total      5500000                       # number of overall MSHR uncacheable cycles
system.cpu7.dcache.ReadReq_mshr_miss_rate::cpu7.data     0.006195                       # mshr miss rate for ReadReq accesses
system.cpu7.dcache.ReadReq_mshr_miss_rate::total     0.006195                       # mshr miss rate for ReadReq accesses
system.cpu7.dcache.WriteReq_mshr_miss_rate::cpu7.data     0.005926                       # mshr miss rate for WriteReq accesses
system.cpu7.dcache.WriteReq_mshr_miss_rate::total     0.005926                       # mshr miss rate for WriteReq accesses
system.cpu7.dcache.LoadLockedReq_mshr_miss_rate::cpu7.data     0.089888                       # mshr miss rate for LoadLockedReq accesses
system.cpu7.dcache.LoadLockedReq_mshr_miss_rate::total     0.089888                       # mshr miss rate for LoadLockedReq accesses
system.cpu7.dcache.StoreCondReq_mshr_miss_rate::cpu7.data     0.220930                       # mshr miss rate for StoreCondReq accesses
system.cpu7.dcache.StoreCondReq_mshr_miss_rate::total     0.220930                       # mshr miss rate for StoreCondReq accesses
system.cpu7.dcache.demand_mshr_miss_rate::cpu7.data     0.006100                       # mshr miss rate for demand accesses
system.cpu7.dcache.demand_mshr_miss_rate::total     0.006100                       # mshr miss rate for demand accesses
system.cpu7.dcache.overall_mshr_miss_rate::cpu7.data     0.006100                       # mshr miss rate for overall accesses
system.cpu7.dcache.overall_mshr_miss_rate::total     0.006100                       # mshr miss rate for overall accesses
system.cpu7.dcache.ReadReq_avg_mshr_miss_latency::cpu7.data 44646.760870                       # average ReadReq mshr miss latency
system.cpu7.dcache.ReadReq_avg_mshr_miss_latency::total 44646.760870                       # average ReadReq mshr miss latency
system.cpu7.dcache.WriteReq_avg_mshr_miss_latency::cpu7.data 37125.750000                       # average WriteReq mshr miss latency
system.cpu7.dcache.WriteReq_avg_mshr_miss_latency::total 37125.750000                       # average WriteReq mshr miss latency
system.cpu7.dcache.LoadLockedReq_avg_mshr_miss_latency::cpu7.data 52187.500000                       # average LoadLockedReq mshr miss latency
system.cpu7.dcache.LoadLockedReq_avg_mshr_miss_latency::total 52187.500000                       # average LoadLockedReq mshr miss latency
system.cpu7.dcache.StoreCondReq_avg_mshr_miss_latency::cpu7.data        26369                       # average StoreCondReq mshr miss latency
system.cpu7.dcache.StoreCondReq_avg_mshr_miss_latency::total        26369                       # average StoreCondReq mshr miss latency
system.cpu7.dcache.StoreCondFailReq_avg_mshr_miss_latency::cpu7.data          inf                       # average StoreCondFailReq mshr miss latency
system.cpu7.dcache.StoreCondFailReq_avg_mshr_miss_latency::total          inf                       # average StoreCondFailReq mshr miss latency
system.cpu7.dcache.demand_avg_mshr_miss_latency::cpu7.data 42068.128571                       # average overall mshr miss latency
system.cpu7.dcache.demand_avg_mshr_miss_latency::total 42068.128571                       # average overall mshr miss latency
system.cpu7.dcache.overall_avg_mshr_miss_latency::cpu7.data 42068.128571                       # average overall mshr miss latency
system.cpu7.dcache.overall_avg_mshr_miss_latency::total 42068.128571                       # average overall mshr miss latency
system.cpu7.dcache.WriteReq_avg_mshr_uncacheable_latency::cpu7.data          inf                       # average WriteReq mshr uncacheable latency
system.cpu7.dcache.WriteReq_avg_mshr_uncacheable_latency::total          inf                       # average WriteReq mshr uncacheable latency
system.cpu7.dcache.overall_avg_mshr_uncacheable_latency::cpu7.data          inf                       # average overall mshr uncacheable latency
system.cpu7.dcache.overall_avg_mshr_uncacheable_latency::total          inf                       # average overall mshr uncacheable latency
system.cpu7.dcache.no_allocate_misses               0                       # Number of misses that were no-allocate

---------- End Simulation Statistics   ----------
