
---------- Begin Simulation Statistics ----------
sim_seconds                                  4.717508                       # Number of seconds simulated
sim_ticks                                4717507684086                       # Number of ticks simulated
final_tick                               4717507684086                       # Number of ticks from beginning of simulation (restored from checkpoints and never reset)
sim_freq                                 1000000000000                       # Frequency of simulated ticks
host_inst_rate                                1613825                       # Simulator instruction rate (inst/s)
host_op_rate                                  4135404                       # Simulator op (including micro ops) rate (op/s)
host_tick_rate                            24140376139                       # Simulator tick rate (ticks/s)
host_mem_usage                                 787504                       # Number of bytes of host memory used
host_seconds                                   195.42                       # Real time elapsed on the host
sim_insts                                   315373384                       # Number of instructions simulated
sim_ops                                     808139783                       # Number of ops (including micro ops) simulated
system.voltage_domain.voltage                       1                       # Voltage in Volts
system.clk_domain.clock                          1000                       # Clock period in ticks
system.mem_ctrls.bytes_read::pc.south_bridge.ide        40384                       # Number of bytes read from this memory
system.mem_ctrls.bytes_read::cpu0.dtb.walker        22720                       # Number of bytes read from this memory
system.mem_ctrls.bytes_read::cpu0.itb.walker        25920                       # Number of bytes read from this memory
system.mem_ctrls.bytes_read::cpu0.inst       32647360                       # Number of bytes read from this memory
system.mem_ctrls.bytes_read::cpu0.data       92054656                       # Number of bytes read from this memory
system.mem_ctrls.bytes_read::cpu1.dtb.walker       152768                       # Number of bytes read from this memory
system.mem_ctrls.bytes_read::cpu1.itb.walker       208896                       # Number of bytes read from this memory
system.mem_ctrls.bytes_read::cpu1.inst       31482944                       # Number of bytes read from this memory
system.mem_ctrls.bytes_read::cpu1.data       14134720                       # Number of bytes read from this memory
system.mem_ctrls.bytes_read::total          170770368                       # Number of bytes read from this memory
system.mem_ctrls.bytes_inst_read::cpu0.inst     32647360                       # Number of instructions bytes read from this memory
system.mem_ctrls.bytes_inst_read::cpu1.inst     31482944                       # Number of instructions bytes read from this memory
system.mem_ctrls.bytes_inst_read::total      64130304                       # Number of instructions bytes read from this memory
system.mem_ctrls.bytes_written::writebacks     35112960                       # Number of bytes written to this memory
system.mem_ctrls.bytes_written::pc.south_bridge.ide      2661376                       # Number of bytes written to this memory
system.mem_ctrls.bytes_written::total        37774336                       # Number of bytes written to this memory
system.mem_ctrls.num_reads::pc.south_bridge.ide          631                       # Number of read requests responded to by this memory
system.mem_ctrls.num_reads::cpu0.dtb.walker          355                       # Number of read requests responded to by this memory
system.mem_ctrls.num_reads::cpu0.itb.walker          405                       # Number of read requests responded to by this memory
system.mem_ctrls.num_reads::cpu0.inst          510115                       # Number of read requests responded to by this memory
system.mem_ctrls.num_reads::cpu0.data         1438354                       # Number of read requests responded to by this memory
system.mem_ctrls.num_reads::cpu1.dtb.walker         2387                       # Number of read requests responded to by this memory
system.mem_ctrls.num_reads::cpu1.itb.walker         3264                       # Number of read requests responded to by this memory
system.mem_ctrls.num_reads::cpu1.inst          491921                       # Number of read requests responded to by this memory
system.mem_ctrls.num_reads::cpu1.data          220855                       # Number of read requests responded to by this memory
system.mem_ctrls.num_reads::total             2668287                       # Number of read requests responded to by this memory
system.mem_ctrls.num_writes::writebacks        548640                       # Number of write requests responded to by this memory
system.mem_ctrls.num_writes::pc.south_bridge.ide        41584                       # Number of write requests responded to by this memory
system.mem_ctrls.num_writes::total             590224                       # Number of write requests responded to by this memory
system.mem_ctrls.bw_read::pc.south_bridge.ide         8560                       # Total read bandwidth from this memory (bytes/s)
system.mem_ctrls.bw_read::cpu0.dtb.walker         4816                       # Total read bandwidth from this memory (bytes/s)
system.mem_ctrls.bw_read::cpu0.itb.walker         5494                       # Total read bandwidth from this memory (bytes/s)
system.mem_ctrls.bw_read::cpu0.inst           6920468                       # Total read bandwidth from this memory (bytes/s)
system.mem_ctrls.bw_read::cpu0.data          19513409                       # Total read bandwidth from this memory (bytes/s)
system.mem_ctrls.bw_read::cpu1.dtb.walker        32383                       # Total read bandwidth from this memory (bytes/s)
system.mem_ctrls.bw_read::cpu1.itb.walker        44281                       # Total read bandwidth from this memory (bytes/s)
system.mem_ctrls.bw_read::cpu1.inst           6673639                       # Total read bandwidth from this memory (bytes/s)
system.mem_ctrls.bw_read::cpu1.data           2996226                       # Total read bandwidth from this memory (bytes/s)
system.mem_ctrls.bw_read::total              36199277                       # Total read bandwidth from this memory (bytes/s)
system.mem_ctrls.bw_inst_read::cpu0.inst      6920468                       # Instruction read bandwidth from this memory (bytes/s)
system.mem_ctrls.bw_inst_read::cpu1.inst      6673639                       # Instruction read bandwidth from this memory (bytes/s)
system.mem_ctrls.bw_inst_read::total         13594107                       # Instruction read bandwidth from this memory (bytes/s)
system.mem_ctrls.bw_write::writebacks         7443117                       # Write bandwidth from this memory (bytes/s)
system.mem_ctrls.bw_write::pc.south_bridge.ide       564149                       # Write bandwidth from this memory (bytes/s)
system.mem_ctrls.bw_write::total              8007265                       # Write bandwidth from this memory (bytes/s)
system.mem_ctrls.bw_total::writebacks         7443117                       # Total bandwidth to/from this memory (bytes/s)
system.mem_ctrls.bw_total::pc.south_bridge.ide       572709                       # Total bandwidth to/from this memory (bytes/s)
system.mem_ctrls.bw_total::cpu0.dtb.walker         4816                       # Total bandwidth to/from this memory (bytes/s)
system.mem_ctrls.bw_total::cpu0.itb.walker         5494                       # Total bandwidth to/from this memory (bytes/s)
system.mem_ctrls.bw_total::cpu0.inst          6920468                       # Total bandwidth to/from this memory (bytes/s)
system.mem_ctrls.bw_total::cpu0.data         19513409                       # Total bandwidth to/from this memory (bytes/s)
system.mem_ctrls.bw_total::cpu1.dtb.walker        32383                       # Total bandwidth to/from this memory (bytes/s)
system.mem_ctrls.bw_total::cpu1.itb.walker        44281                       # Total bandwidth to/from this memory (bytes/s)
system.mem_ctrls.bw_total::cpu1.inst          6673639                       # Total bandwidth to/from this memory (bytes/s)
system.mem_ctrls.bw_total::cpu1.data          2996226                       # Total bandwidth to/from this memory (bytes/s)
system.mem_ctrls.bw_total::total             44206543                       # Total bandwidth to/from this memory (bytes/s)
system.mem_ctrls.readReqs                           0                       # Number of read requests accepted
system.mem_ctrls.writeReqs                          0                       # Number of write requests accepted
system.mem_ctrls.readBursts                         0                       # Number of DRAM read bursts, including those serviced by the write queue
system.mem_ctrls.writeBursts                        0                       # Number of DRAM write bursts, including those merged in the write queue
system.mem_ctrls.bytesReadDRAM                      0                       # Total number of bytes read from DRAM
system.mem_ctrls.bytesReadWrQ                       0                       # Total number of bytes read from write queue
system.mem_ctrls.bytesWritten                       0                       # Total number of bytes written to DRAM
system.mem_ctrls.bytesReadSys                       0                       # Total read bytes from the system interface side
system.mem_ctrls.bytesWrittenSys                    0                       # Total written bytes from the system interface side
system.mem_ctrls.servicedByWrQ                      0                       # Number of DRAM read bursts serviced by the write queue
system.mem_ctrls.mergedWrBursts                     0                       # Number of DRAM write bursts merged with an existing one
system.mem_ctrls.neitherReadNorWriteReqs            0                       # Number of requests that are neither read nor write
system.mem_ctrls.perBankRdBursts::0                 0                       # Per bank write bursts
system.mem_ctrls.perBankRdBursts::1                 0                       # Per bank write bursts
system.mem_ctrls.perBankRdBursts::2                 0                       # Per bank write bursts
system.mem_ctrls.perBankRdBursts::3                 0                       # Per bank write bursts
system.mem_ctrls.perBankRdBursts::4                 0                       # Per bank write bursts
system.mem_ctrls.perBankRdBursts::5                 0                       # Per bank write bursts
system.mem_ctrls.perBankRdBursts::6                 0                       # Per bank write bursts
system.mem_ctrls.perBankRdBursts::7                 0                       # Per bank write bursts
system.mem_ctrls.perBankRdBursts::8                 0                       # Per bank write bursts
system.mem_ctrls.perBankRdBursts::9                 0                       # Per bank write bursts
system.mem_ctrls.perBankRdBursts::10                0                       # Per bank write bursts
system.mem_ctrls.perBankRdBursts::11                0                       # Per bank write bursts
system.mem_ctrls.perBankRdBursts::12                0                       # Per bank write bursts
system.mem_ctrls.perBankRdBursts::13                0                       # Per bank write bursts
system.mem_ctrls.perBankRdBursts::14                0                       # Per bank write bursts
system.mem_ctrls.perBankRdBursts::15                0                       # Per bank write bursts
system.mem_ctrls.perBankWrBursts::0                 0                       # Per bank write bursts
system.mem_ctrls.perBankWrBursts::1                 0                       # Per bank write bursts
system.mem_ctrls.perBankWrBursts::2                 0                       # Per bank write bursts
system.mem_ctrls.perBankWrBursts::3                 0                       # Per bank write bursts
system.mem_ctrls.perBankWrBursts::4                 0                       # Per bank write bursts
system.mem_ctrls.perBankWrBursts::5                 0                       # Per bank write bursts
system.mem_ctrls.perBankWrBursts::6                 0                       # Per bank write bursts
system.mem_ctrls.perBankWrBursts::7                 0                       # Per bank write bursts
system.mem_ctrls.perBankWrBursts::8                 0                       # Per bank write bursts
system.mem_ctrls.perBankWrBursts::9                 0                       # Per bank write bursts
system.mem_ctrls.perBankWrBursts::10                0                       # Per bank write bursts
system.mem_ctrls.perBankWrBursts::11                0                       # Per bank write bursts
system.mem_ctrls.perBankWrBursts::12                0                       # Per bank write bursts
system.mem_ctrls.perBankWrBursts::13                0                       # Per bank write bursts
system.mem_ctrls.perBankWrBursts::14                0                       # Per bank write bursts
system.mem_ctrls.perBankWrBursts::15                0                       # Per bank write bursts
system.mem_ctrls.numRdRetry                         0                       # Number of times read queue was full causing retry
system.mem_ctrls.numWrRetry                         0                       # Number of times write queue was full causing retry
system.mem_ctrls.totGap                             0                       # Total gap between requests
system.mem_ctrls.readPktSize::0                     0                       # Read request sizes (log2)
system.mem_ctrls.readPktSize::1                     0                       # Read request sizes (log2)
system.mem_ctrls.readPktSize::2                     0                       # Read request sizes (log2)
system.mem_ctrls.readPktSize::3                     0                       # Read request sizes (log2)
system.mem_ctrls.readPktSize::4                     0                       # Read request sizes (log2)
system.mem_ctrls.readPktSize::5                     0                       # Read request sizes (log2)
system.mem_ctrls.readPktSize::6                     0                       # Read request sizes (log2)
system.mem_ctrls.writePktSize::0                    0                       # Write request sizes (log2)
system.mem_ctrls.writePktSize::1                    0                       # Write request sizes (log2)
system.mem_ctrls.writePktSize::2                    0                       # Write request sizes (log2)
system.mem_ctrls.writePktSize::3                    0                       # Write request sizes (log2)
system.mem_ctrls.writePktSize::4                    0                       # Write request sizes (log2)
system.mem_ctrls.writePktSize::5                    0                       # Write request sizes (log2)
system.mem_ctrls.writePktSize::6                    0                       # Write request sizes (log2)
system.mem_ctrls.rdQLenPdf::0                       0                       # What read queue length does an incoming req see
system.mem_ctrls.rdQLenPdf::1                       0                       # What read queue length does an incoming req see
system.mem_ctrls.rdQLenPdf::2                       0                       # What read queue length does an incoming req see
system.mem_ctrls.rdQLenPdf::3                       0                       # What read queue length does an incoming req see
system.mem_ctrls.rdQLenPdf::4                       0                       # What read queue length does an incoming req see
system.mem_ctrls.rdQLenPdf::5                       0                       # What read queue length does an incoming req see
system.mem_ctrls.rdQLenPdf::6                       0                       # What read queue length does an incoming req see
system.mem_ctrls.rdQLenPdf::7                       0                       # What read queue length does an incoming req see
system.mem_ctrls.rdQLenPdf::8                       0                       # What read queue length does an incoming req see
system.mem_ctrls.rdQLenPdf::9                       0                       # What read queue length does an incoming req see
system.mem_ctrls.rdQLenPdf::10                      0                       # What read queue length does an incoming req see
system.mem_ctrls.rdQLenPdf::11                      0                       # What read queue length does an incoming req see
system.mem_ctrls.rdQLenPdf::12                      0                       # What read queue length does an incoming req see
system.mem_ctrls.rdQLenPdf::13                      0                       # What read queue length does an incoming req see
system.mem_ctrls.rdQLenPdf::14                      0                       # What read queue length does an incoming req see
system.mem_ctrls.rdQLenPdf::15                      0                       # What read queue length does an incoming req see
system.mem_ctrls.rdQLenPdf::16                      0                       # What read queue length does an incoming req see
system.mem_ctrls.rdQLenPdf::17                      0                       # What read queue length does an incoming req see
system.mem_ctrls.rdQLenPdf::18                      0                       # What read queue length does an incoming req see
system.mem_ctrls.rdQLenPdf::19                      0                       # What read queue length does an incoming req see
system.mem_ctrls.rdQLenPdf::20                      0                       # What read queue length does an incoming req see
system.mem_ctrls.rdQLenPdf::21                      0                       # What read queue length does an incoming req see
system.mem_ctrls.rdQLenPdf::22                      0                       # What read queue length does an incoming req see
system.mem_ctrls.rdQLenPdf::23                      0                       # What read queue length does an incoming req see
system.mem_ctrls.rdQLenPdf::24                      0                       # What read queue length does an incoming req see
system.mem_ctrls.rdQLenPdf::25                      0                       # What read queue length does an incoming req see
system.mem_ctrls.rdQLenPdf::26                      0                       # What read queue length does an incoming req see
system.mem_ctrls.rdQLenPdf::27                      0                       # What read queue length does an incoming req see
system.mem_ctrls.rdQLenPdf::28                      0                       # What read queue length does an incoming req see
system.mem_ctrls.rdQLenPdf::29                      0                       # What read queue length does an incoming req see
system.mem_ctrls.rdQLenPdf::30                      0                       # What read queue length does an incoming req see
system.mem_ctrls.rdQLenPdf::31                      0                       # What read queue length does an incoming req see
system.mem_ctrls.wrQLenPdf::0                       0                       # What write queue length does an incoming req see
system.mem_ctrls.wrQLenPdf::1                       0                       # What write queue length does an incoming req see
system.mem_ctrls.wrQLenPdf::2                       0                       # What write queue length does an incoming req see
system.mem_ctrls.wrQLenPdf::3                       0                       # What write queue length does an incoming req see
system.mem_ctrls.wrQLenPdf::4                       0                       # What write queue length does an incoming req see
system.mem_ctrls.wrQLenPdf::5                       0                       # What write queue length does an incoming req see
system.mem_ctrls.wrQLenPdf::6                       0                       # What write queue length does an incoming req see
system.mem_ctrls.wrQLenPdf::7                       0                       # What write queue length does an incoming req see
system.mem_ctrls.wrQLenPdf::8                       0                       # What write queue length does an incoming req see
system.mem_ctrls.wrQLenPdf::9                       0                       # What write queue length does an incoming req see
system.mem_ctrls.wrQLenPdf::10                      0                       # What write queue length does an incoming req see
system.mem_ctrls.wrQLenPdf::11                      0                       # What write queue length does an incoming req see
system.mem_ctrls.wrQLenPdf::12                      0                       # What write queue length does an incoming req see
system.mem_ctrls.wrQLenPdf::13                      0                       # What write queue length does an incoming req see
system.mem_ctrls.wrQLenPdf::14                      0                       # What write queue length does an incoming req see
system.mem_ctrls.wrQLenPdf::15                      0                       # What write queue length does an incoming req see
system.mem_ctrls.wrQLenPdf::16                      0                       # What write queue length does an incoming req see
system.mem_ctrls.wrQLenPdf::17                      0                       # What write queue length does an incoming req see
system.mem_ctrls.wrQLenPdf::18                      0                       # What write queue length does an incoming req see
system.mem_ctrls.wrQLenPdf::19                      0                       # What write queue length does an incoming req see
system.mem_ctrls.wrQLenPdf::20                      0                       # What write queue length does an incoming req see
system.mem_ctrls.wrQLenPdf::21                      0                       # What write queue length does an incoming req see
system.mem_ctrls.wrQLenPdf::22                      0                       # What write queue length does an incoming req see
system.mem_ctrls.wrQLenPdf::23                      0                       # What write queue length does an incoming req see
system.mem_ctrls.wrQLenPdf::24                      0                       # What write queue length does an incoming req see
system.mem_ctrls.wrQLenPdf::25                      0                       # What write queue length does an incoming req see
system.mem_ctrls.wrQLenPdf::26                      0                       # What write queue length does an incoming req see
system.mem_ctrls.wrQLenPdf::27                      0                       # What write queue length does an incoming req see
system.mem_ctrls.wrQLenPdf::28                      0                       # What write queue length does an incoming req see
system.mem_ctrls.wrQLenPdf::29                      0                       # What write queue length does an incoming req see
system.mem_ctrls.wrQLenPdf::30                      0                       # What write queue length does an incoming req see
system.mem_ctrls.wrQLenPdf::31                      0                       # What write queue length does an incoming req see
system.mem_ctrls.wrQLenPdf::32                      0                       # What write queue length does an incoming req see
system.mem_ctrls.wrQLenPdf::33                      0                       # What write queue length does an incoming req see
system.mem_ctrls.wrQLenPdf::34                      0                       # What write queue length does an incoming req see
system.mem_ctrls.wrQLenPdf::35                      0                       # What write queue length does an incoming req see
system.mem_ctrls.wrQLenPdf::36                      0                       # What write queue length does an incoming req see
system.mem_ctrls.wrQLenPdf::37                      0                       # What write queue length does an incoming req see
system.mem_ctrls.wrQLenPdf::38                      0                       # What write queue length does an incoming req see
system.mem_ctrls.wrQLenPdf::39                      0                       # What write queue length does an incoming req see
system.mem_ctrls.wrQLenPdf::40                      0                       # What write queue length does an incoming req see
system.mem_ctrls.wrQLenPdf::41                      0                       # What write queue length does an incoming req see
system.mem_ctrls.wrQLenPdf::42                      0                       # What write queue length does an incoming req see
system.mem_ctrls.wrQLenPdf::43                      0                       # What write queue length does an incoming req see
system.mem_ctrls.wrQLenPdf::44                      0                       # What write queue length does an incoming req see
system.mem_ctrls.wrQLenPdf::45                      0                       # What write queue length does an incoming req see
system.mem_ctrls.wrQLenPdf::46                      0                       # What write queue length does an incoming req see
system.mem_ctrls.wrQLenPdf::47                      0                       # What write queue length does an incoming req see
system.mem_ctrls.wrQLenPdf::48                      0                       # What write queue length does an incoming req see
system.mem_ctrls.wrQLenPdf::49                      0                       # What write queue length does an incoming req see
system.mem_ctrls.wrQLenPdf::50                      0                       # What write queue length does an incoming req see
system.mem_ctrls.wrQLenPdf::51                      0                       # What write queue length does an incoming req see
system.mem_ctrls.wrQLenPdf::52                      0                       # What write queue length does an incoming req see
system.mem_ctrls.wrQLenPdf::53                      0                       # What write queue length does an incoming req see
system.mem_ctrls.wrQLenPdf::54                      0                       # What write queue length does an incoming req see
system.mem_ctrls.wrQLenPdf::55                      0                       # What write queue length does an incoming req see
system.mem_ctrls.wrQLenPdf::56                      0                       # What write queue length does an incoming req see
system.mem_ctrls.wrQLenPdf::57                      0                       # What write queue length does an incoming req see
system.mem_ctrls.wrQLenPdf::58                      0                       # What write queue length does an incoming req see
system.mem_ctrls.wrQLenPdf::59                      0                       # What write queue length does an incoming req see
system.mem_ctrls.wrQLenPdf::60                      0                       # What write queue length does an incoming req see
system.mem_ctrls.wrQLenPdf::61                      0                       # What write queue length does an incoming req see
system.mem_ctrls.wrQLenPdf::62                      0                       # What write queue length does an incoming req see
system.mem_ctrls.wrQLenPdf::63                      0                       # What write queue length does an incoming req see
system.mem_ctrls.totQLat                            0                       # Total ticks spent queuing
system.mem_ctrls.totMemAccLat                       0                       # Total ticks spent from burst creation until serviced by the DRAM
system.mem_ctrls.totBusLat                          0                       # Total ticks spent in databus transfers
system.mem_ctrls.avgQLat                          nan                       # Average queueing delay per DRAM burst
system.mem_ctrls.avgBusLat                        nan                       # Average bus latency per DRAM burst
system.mem_ctrls.avgMemAccLat                     nan                       # Average memory access latency per DRAM burst
system.mem_ctrls.avgRdBW                         0.00                       # Average DRAM read bandwidth in MiByte/s
system.mem_ctrls.avgWrBW                         0.00                       # Average achieved write bandwidth in MiByte/s
system.mem_ctrls.avgRdBWSys                      0.00                       # Average system read bandwidth in MiByte/s
system.mem_ctrls.avgWrBWSys                      0.00                       # Average system write bandwidth in MiByte/s
system.mem_ctrls.peakBW                      12800.00                       # Theoretical peak bandwidth in MiByte/s
system.mem_ctrls.busUtil                         0.00                       # Data bus utilization in percentage
system.mem_ctrls.busUtilRead                     0.00                       # Data bus utilization in percentage for reads
system.mem_ctrls.busUtilWrite                    0.00                       # Data bus utilization in percentage for writes
system.mem_ctrls.avgRdQLen                       0.00                       # Average read queue length when enqueuing
system.mem_ctrls.avgWrQLen                       0.00                       # Average write queue length when enqueuing
system.mem_ctrls.readRowHits                        0                       # Number of row buffer hits during reads
system.mem_ctrls.writeRowHits                       0                       # Number of row buffer hits during writes
system.mem_ctrls.readRowHitRate                   nan                       # Row buffer hit rate for reads
system.mem_ctrls.writeRowHitRate                  nan                       # Row buffer hit rate for writes
system.mem_ctrls.avgGap                           nan                       # Average gap between requests
system.mem_ctrls.pageHitRate                      nan                       # Row buffer hit rate, read and write combined
system.mem_ctrls.memoryStateTime::IDLE   4559974505000                       # Time in different power states
system.mem_ctrls.memoryStateTime::REF    157527760000                       # Time in different power states
system.mem_ctrls.memoryStateTime::PRE_PDN            0                       # Time in different power states
system.mem_ctrls.memoryStateTime::ACT               0                       # Time in different power states
system.mem_ctrls.memoryStateTime::ACT_PDN            0                       # Time in different power states
system.mem_ctrls.actEnergy::0                       0                       # Energy for activate commands per rank (pJ)
system.mem_ctrls.actEnergy::1                       0                       # Energy for activate commands per rank (pJ)
system.mem_ctrls.preEnergy::0                       0                       # Energy for precharge commands per rank (pJ)
system.mem_ctrls.preEnergy::1                       0                       # Energy for precharge commands per rank (pJ)
system.mem_ctrls.readEnergy::0                      0                       # Energy for read commands per rank (pJ)
system.mem_ctrls.readEnergy::1                      0                       # Energy for read commands per rank (pJ)
system.mem_ctrls.writeEnergy::0                     0                       # Energy for write commands per rank (pJ)
system.mem_ctrls.writeEnergy::1                     0                       # Energy for write commands per rank (pJ)
system.mem_ctrls.refreshEnergy::0        308124298560                       # Energy for refresh commands per rank (pJ)
system.mem_ctrls.refreshEnergy::1        308124298560                       # Energy for refresh commands per rank (pJ)
system.mem_ctrls.actBackEnergy::0        102050724060                       # Energy for active background per rank (pJ)
system.mem_ctrls.actBackEnergy::1        102050724060                       # Energy for active background per rank (pJ)
system.mem_ctrls.preBackEnergy::0        2740983171750                       # Energy for precharge background per rank (pJ)
system.mem_ctrls.preBackEnergy::1        2740983171750                       # Energy for precharge background per rank (pJ)
system.mem_ctrls.totalEnergy::0          3151158194370                       # Total energy per rank (pJ)
system.mem_ctrls.totalEnergy::1          3151158194370                       # Total energy per rank (pJ)
system.mem_ctrls.averagePower::0           667.971742                       # Core power per rank (mW)
system.mem_ctrls.averagePower::1           667.971742                       # Core power per rank (mW)
system.membus.trans_dist::ReadReq             6787675                       # Transaction distribution
system.membus.trans_dist::ReadResp            6787675                       # Transaction distribution
system.membus.trans_dist::WriteReq              20770                       # Transaction distribution
system.membus.trans_dist::WriteResp             20770                       # Transaction distribution
system.membus.trans_dist::Writeback            548640                       # Transaction distribution
system.membus.trans_dist::WriteInvalidateReq        41584                       # Transaction distribution
system.membus.trans_dist::WriteInvalidateResp        41584                       # Transaction distribution
system.membus.trans_dist::UpgradeReq           116794                       # Transaction distribution
system.membus.trans_dist::UpgradeResp          116794                       # Transaction distribution
system.membus.trans_dist::ReadExReq            404110                       # Transaction distribution
system.membus.trans_dist::ReadExResp           404110                       # Transaction distribution
system.membus.trans_dist::MessageReq             2677                       # Transaction distribution
system.membus.trans_dist::MessageResp            2677                       # Transaction distribution
system.membus.pkt_count_system.apicbridge.master::system.cpu0.interrupts.int_slave          516                       # Packet count per connected master and slave (bytes)
system.membus.pkt_count_system.apicbridge.master::system.cpu1.interrupts.int_slave          390                       # Packet count per connected master and slave (bytes)
system.membus.pkt_count_system.apicbridge.master::total          906                       # Packet count per connected master and slave (bytes)
system.membus.pkt_count_system.iocache.mem_side::system.mem_ctrls.port        85604                       # Packet count per connected master and slave (bytes)
system.membus.pkt_count_system.iocache.mem_side::total        85604                       # Packet count per connected master and slave (bytes)
system.membus.pkt_count_system.cpu0.icache.mem_side::system.mem_ctrls.port      1020234                       # Packet count per connected master and slave (bytes)
system.membus.pkt_count_system.cpu0.icache.mem_side::total      1020234                       # Packet count per connected master and slave (bytes)
system.membus.pkt_count_system.cpu0.dcache.mem_side::system.bridge.slave      8754000                       # Packet count per connected master and slave (bytes)
system.membus.pkt_count_system.cpu0.dcache.mem_side::system.cpu0.interrupts.pio        12460                       # Packet count per connected master and slave (bytes)
system.membus.pkt_count_system.cpu0.dcache.mem_side::system.mem_ctrls.port      3565671                       # Packet count per connected master and slave (bytes)
system.membus.pkt_count_system.cpu0.dcache.mem_side::total     12332131                       # Packet count per connected master and slave (bytes)
system.membus.pkt_count_system.cpu0.itb_walker_cache.mem_side::system.mem_ctrls.port         2454                       # Packet count per connected master and slave (bytes)
system.membus.pkt_count_system.cpu0.itb_walker_cache.mem_side::total         2454                       # Packet count per connected master and slave (bytes)
system.membus.pkt_count_system.cpu0.dtb_walker_cache.mem_side::system.mem_ctrls.port         1772                       # Packet count per connected master and slave (bytes)
system.membus.pkt_count_system.cpu0.dtb_walker_cache.mem_side::total         1772                       # Packet count per connected master and slave (bytes)
system.membus.pkt_count_system.cpu0.interrupts.int_master::system.cpu1.interrupts.int_slave         2492                       # Packet count per connected master and slave (bytes)
system.membus.pkt_count_system.cpu0.interrupts.int_master::total         2492                       # Packet count per connected master and slave (bytes)
system.membus.pkt_count_system.cpu1.icache.mem_side::system.mem_ctrls.port       983858                       # Packet count per connected master and slave (bytes)
system.membus.pkt_count_system.cpu1.icache.mem_side::total       983858                       # Packet count per connected master and slave (bytes)
system.membus.pkt_count_system.cpu1.dcache.mem_side::system.bridge.slave        12516                       # Packet count per connected master and slave (bytes)
system.membus.pkt_count_system.cpu1.dcache.mem_side::system.cpu1.interrupts.pio        11016                       # Packet count per connected master and slave (bytes)
system.membus.pkt_count_system.cpu1.dcache.mem_side::system.mem_ctrls.port       825179                       # Packet count per connected master and slave (bytes)
system.membus.pkt_count_system.cpu1.dcache.mem_side::total       848711                       # Packet count per connected master and slave (bytes)
system.membus.pkt_count_system.cpu1.itb_walker_cache.mem_side::system.mem_ctrls.port         9080                       # Packet count per connected master and slave (bytes)
system.membus.pkt_count_system.cpu1.itb_walker_cache.mem_side::total         9080                       # Packet count per connected master and slave (bytes)
system.membus.pkt_count_system.cpu1.dtb_walker_cache.mem_side::system.mem_ctrls.port         6662                       # Packet count per connected master and slave (bytes)
system.membus.pkt_count_system.cpu1.dtb_walker_cache.mem_side::total         6662                       # Packet count per connected master and slave (bytes)
system.membus.pkt_count_system.cpu1.interrupts.int_master::system.cpu0.interrupts.int_slave         1956                       # Packet count per connected master and slave (bytes)
system.membus.pkt_count_system.cpu1.interrupts.int_master::total         1956                       # Packet count per connected master and slave (bytes)
system.membus.pkt_count::total               15295860                       # Packet count per connected master and slave (bytes)
system.membus.pkt_size_system.apicbridge.master::system.cpu0.interrupts.int_slave         1032                       # Cumulative packet size per connected master and slave (bytes)
system.membus.pkt_size_system.apicbridge.master::system.cpu1.interrupts.int_slave          780                       # Cumulative packet size per connected master and slave (bytes)
system.membus.pkt_size_system.apicbridge.master::total         1812                       # Cumulative packet size per connected master and slave (bytes)
system.membus.pkt_size_system.iocache.mem_side::system.mem_ctrls.port      2739328                       # Cumulative packet size per connected master and slave (bytes)
system.membus.pkt_size_system.iocache.mem_side::total      2739328                       # Cumulative packet size per connected master and slave (bytes)
system.membus.pkt_size_system.cpu0.icache.mem_side::system.mem_ctrls.port     32647488                       # Cumulative packet size per connected master and slave (bytes)
system.membus.pkt_size_system.cpu0.icache.mem_side::total     32647488                       # Cumulative packet size per connected master and slave (bytes)
system.membus.pkt_size_system.cpu0.dcache.mem_side::system.bridge.slave      4405313                       # Cumulative packet size per connected master and slave (bytes)
system.membus.pkt_size_system.cpu0.dcache.mem_side::system.cpu0.interrupts.pio        24920                       # Cumulative packet size per connected master and slave (bytes)
system.membus.pkt_size_system.cpu0.dcache.mem_side::system.mem_ctrls.port    123597440                       # Cumulative packet size per connected master and slave (bytes)
system.membus.pkt_size_system.cpu0.dcache.mem_side::total    128027673                       # Cumulative packet size per connected master and slave (bytes)
system.membus.pkt_size_system.cpu0.itb_walker_cache.mem_side::system.mem_ctrls.port        78592                       # Cumulative packet size per connected master and slave (bytes)
system.membus.pkt_size_system.cpu0.itb_walker_cache.mem_side::total        78592                       # Cumulative packet size per connected master and slave (bytes)
system.membus.pkt_size_system.cpu0.dtb_walker_cache.mem_side::system.mem_ctrls.port        56704                       # Cumulative packet size per connected master and slave (bytes)
system.membus.pkt_size_system.cpu0.dtb_walker_cache.mem_side::total        56704                       # Cumulative packet size per connected master and slave (bytes)
system.membus.pkt_size_system.cpu0.interrupts.int_master::system.cpu1.interrupts.int_slave         4984                       # Cumulative packet size per connected master and slave (bytes)
system.membus.pkt_size_system.cpu0.interrupts.int_master::total         4984                       # Cumulative packet size per connected master and slave (bytes)
system.membus.pkt_size_system.cpu1.icache.mem_side::system.mem_ctrls.port     31483456                       # Cumulative packet size per connected master and slave (bytes)
system.membus.pkt_size_system.cpu1.icache.mem_side::total     31483456                       # Cumulative packet size per connected master and slave (bytes)
system.membus.pkt_size_system.cpu1.dcache.mem_side::system.bridge.slave         6885                       # Cumulative packet size per connected master and slave (bytes)
system.membus.pkt_size_system.cpu1.dcache.mem_side::system.cpu1.interrupts.pio        22032                       # Cumulative packet size per connected master and slave (bytes)
system.membus.pkt_size_system.cpu1.dcache.mem_side::system.mem_ctrls.port     26991360                       # Cumulative packet size per connected master and slave (bytes)
system.membus.pkt_size_system.cpu1.dcache.mem_side::total     27020277                       # Cumulative packet size per connected master and slave (bytes)
system.membus.pkt_size_system.cpu1.itb_walker_cache.mem_side::system.mem_ctrls.port       290560                       # Cumulative packet size per connected master and slave (bytes)
system.membus.pkt_size_system.cpu1.itb_walker_cache.mem_side::total       290560                       # Cumulative packet size per connected master and slave (bytes)
system.membus.pkt_size_system.cpu1.dtb_walker_cache.mem_side::system.mem_ctrls.port       213184                       # Cumulative packet size per connected master and slave (bytes)
system.membus.pkt_size_system.cpu1.dtb_walker_cache.mem_side::total       213184                       # Cumulative packet size per connected master and slave (bytes)
system.membus.pkt_size_system.cpu1.interrupts.int_master::system.cpu0.interrupts.int_slave         3912                       # Cumulative packet size per connected master and slave (bytes)
system.membus.pkt_size_system.cpu1.interrupts.int_master::total         3912                       # Cumulative packet size per connected master and slave (bytes)
system.membus.pkt_size::total               222567970                       # Cumulative packet size per connected master and slave (bytes)
system.membus.snoops                                0                       # Total snoops (count)
system.membus.snoop_fanout::samples           3524577                       # Request fanout histogram
system.membus.snoop_fanout::mean                    8                       # Request fanout histogram
system.membus.snoop_fanout::stdev                   0                       # Request fanout histogram
system.membus.snoop_fanout::underflows              0      0.00%      0.00% # Request fanout histogram
system.membus.snoop_fanout::0                       0      0.00%      0.00% # Request fanout histogram
system.membus.snoop_fanout::1                       0      0.00%      0.00% # Request fanout histogram
system.membus.snoop_fanout::2                       0      0.00%      0.00% # Request fanout histogram
system.membus.snoop_fanout::3                       0      0.00%      0.00% # Request fanout histogram
system.membus.snoop_fanout::4                       0      0.00%      0.00% # Request fanout histogram
system.membus.snoop_fanout::5                       0      0.00%      0.00% # Request fanout histogram
system.membus.snoop_fanout::6                       0      0.00%      0.00% # Request fanout histogram
system.membus.snoop_fanout::7                       0      0.00%      0.00% # Request fanout histogram
system.membus.snoop_fanout::8                 3524577    100.00%    100.00% # Request fanout histogram
system.membus.snoop_fanout::9                       0      0.00%    100.00% # Request fanout histogram
system.membus.snoop_fanout::overflows               0      0.00%    100.00% # Request fanout histogram
system.membus.snoop_fanout::min_value               8                       # Request fanout histogram
system.membus.snoop_fanout::max_value               8                       # Request fanout histogram
system.membus.snoop_fanout::total             3524577                       # Request fanout histogram
system.cpu_voltage_domain.voltage                   1                       # Voltage in Volts
system.pc.south_bridge.ide.disks0.dma_read_full_pages            9                       # Number of full page size DMA reads (not PRD).
system.pc.south_bridge.ide.disks0.dma_read_bytes        36864                       # Number of bytes transfered via DMA reads (not PRD).
system.pc.south_bridge.ide.disks0.dma_read_txs            9                       # Number of DMA read transactions (not PRD).
system.pc.south_bridge.ide.disks0.dma_write_full_pages          648                       # Number of full page size DMA writes.
system.pc.south_bridge.ide.disks0.dma_write_bytes      2657280                       # Number of bytes transfered via DMA writes.
system.pc.south_bridge.ide.disks0.dma_write_txs          652                       # Number of DMA write transactions.
system.pc.south_bridge.ide.disks1.dma_read_full_pages            0                       # Number of full page size DMA reads (not PRD).
system.pc.south_bridge.ide.disks1.dma_read_bytes            0                       # Number of bytes transfered via DMA reads (not PRD).
system.pc.south_bridge.ide.disks1.dma_read_txs            0                       # Number of DMA read transactions (not PRD).
system.pc.south_bridge.ide.disks1.dma_write_full_pages            1                       # Number of full page size DMA writes.
system.pc.south_bridge.ide.disks1.dma_write_bytes         4096                       # Number of bytes transfered via DMA writes.
system.pc.south_bridge.ide.disks1.dma_write_txs            1                       # Number of DMA write transactions.
system.iobus.trans_dist::ReadReq              4373108                       # Transaction distribution
system.iobus.trans_dist::ReadResp             4373108                       # Transaction distribution
system.iobus.trans_dist::WriteReq               52952                       # Transaction distribution
system.iobus.trans_dist::WriteResp              11368                       # Transaction distribution
system.iobus.trans_dist::WriteInvalidateResp        41584                       # Transaction distribution
system.iobus.trans_dist::MessageReq               453                       # Transaction distribution
system.iobus.trans_dist::MessageResp              453                       # Transaction distribution
system.iobus.pkt_count_system.bridge.master::system.pc.south_bridge.cmos.pio           52                       # Packet count per connected master and slave (bytes)
system.iobus.pkt_count_system.bridge.master::system.pc.south_bridge.dma1.pio            6                       # Packet count per connected master and slave (bytes)
system.iobus.pkt_count_system.bridge.master::system.pc.south_bridge.ide.pio         6304                       # Packet count per connected master and slave (bytes)
system.iobus.pkt_count_system.bridge.master::system.pc.south_bridge.ide-pciconf          180                       # Packet count per connected master and slave (bytes)
system.iobus.pkt_count_system.bridge.master::system.pc.south_bridge.keyboard.pio         1376                       # Packet count per connected master and slave (bytes)
system.iobus.pkt_count_system.bridge.master::system.pc.south_bridge.pic1.pio           56                       # Packet count per connected master and slave (bytes)
system.iobus.pkt_count_system.bridge.master::system.pc.south_bridge.pic2.pio           52                       # Packet count per connected master and slave (bytes)
system.iobus.pkt_count_system.bridge.master::system.pc.south_bridge.pit.pio      8702142                       # Packet count per connected master and slave (bytes)
system.iobus.pkt_count_system.bridge.master::system.pc.south_bridge.speaker.pio            4                       # Packet count per connected master and slave (bytes)
system.iobus.pkt_count_system.bridge.master::system.pc.south_bridge.io_apic.pio         1236                       # Packet count per connected master and slave (bytes)
system.iobus.pkt_count_system.bridge.master::system.pc.i_dont_exist.pio           60                       # Packet count per connected master and slave (bytes)
system.iobus.pkt_count_system.bridge.master::system.pc.behind_pci.pio            2                       # Packet count per connected master and slave (bytes)
system.iobus.pkt_count_system.bridge.master::system.pc.com_1.pio        36220                       # Packet count per connected master and slave (bytes)
system.iobus.pkt_count_system.bridge.master::system.pc.fake_com_2.pio           12                       # Packet count per connected master and slave (bytes)
system.iobus.pkt_count_system.bridge.master::system.pc.fake_com_3.pio           12                       # Packet count per connected master and slave (bytes)
system.iobus.pkt_count_system.bridge.master::system.pc.fake_com_4.pio           12                       # Packet count per connected master and slave (bytes)
system.iobus.pkt_count_system.bridge.master::system.pc.fake_floppy.pio           10                       # Packet count per connected master and slave (bytes)
system.iobus.pkt_count_system.bridge.master::system.pc.pciconfig.pio        18780                       # Packet count per connected master and slave (bytes)
system.iobus.pkt_count_system.bridge.master::total      8766516                       # Packet count per connected master and slave (bytes)
system.iobus.pkt_count_system.pc.south_bridge.ide.dma::system.iocache.cpu_side        85604                       # Packet count per connected master and slave (bytes)
system.iobus.pkt_count_system.pc.south_bridge.ide.dma::total        85604                       # Packet count per connected master and slave (bytes)
system.iobus.pkt_count_system.pc.south_bridge.io_apic.int_master::system.apicbridge.slave          906                       # Packet count per connected master and slave (bytes)
system.iobus.pkt_count_system.pc.south_bridge.io_apic.int_master::total          906                       # Packet count per connected master and slave (bytes)
system.iobus.pkt_count::total                 8853026                       # Packet count per connected master and slave (bytes)
system.iobus.pkt_size_system.bridge.master::system.pc.south_bridge.cmos.pio           26                       # Cumulative packet size per connected master and slave (bytes)
system.iobus.pkt_size_system.bridge.master::system.pc.south_bridge.dma1.pio            3                       # Cumulative packet size per connected master and slave (bytes)
system.iobus.pkt_size_system.bridge.master::system.pc.south_bridge.ide.pio         3985                       # Cumulative packet size per connected master and slave (bytes)
system.iobus.pkt_size_system.bridge.master::system.pc.south_bridge.ide-pciconf          219                       # Cumulative packet size per connected master and slave (bytes)
system.iobus.pkt_size_system.bridge.master::system.pc.south_bridge.keyboard.pio          688                       # Cumulative packet size per connected master and slave (bytes)
system.iobus.pkt_size_system.bridge.master::system.pc.south_bridge.pic1.pio           28                       # Cumulative packet size per connected master and slave (bytes)
system.iobus.pkt_size_system.bridge.master::system.pc.south_bridge.pic2.pio           26                       # Cumulative packet size per connected master and slave (bytes)
system.iobus.pkt_size_system.bridge.master::system.pc.south_bridge.pit.pio      4351071                       # Cumulative packet size per connected master and slave (bytes)
system.iobus.pkt_size_system.bridge.master::system.pc.south_bridge.speaker.pio            2                       # Cumulative packet size per connected master and slave (bytes)
system.iobus.pkt_size_system.bridge.master::system.pc.south_bridge.io_apic.pio         2472                       # Cumulative packet size per connected master and slave (bytes)
system.iobus.pkt_size_system.bridge.master::system.pc.i_dont_exist.pio           30                       # Cumulative packet size per connected master and slave (bytes)
system.iobus.pkt_size_system.bridge.master::system.pc.behind_pci.pio            1                       # Cumulative packet size per connected master and slave (bytes)
system.iobus.pkt_size_system.bridge.master::system.pc.com_1.pio        18110                       # Cumulative packet size per connected master and slave (bytes)
system.iobus.pkt_size_system.bridge.master::system.pc.fake_com_2.pio            6                       # Cumulative packet size per connected master and slave (bytes)
system.iobus.pkt_size_system.bridge.master::system.pc.fake_com_3.pio            6                       # Cumulative packet size per connected master and slave (bytes)
system.iobus.pkt_size_system.bridge.master::system.pc.fake_com_4.pio            6                       # Cumulative packet size per connected master and slave (bytes)
system.iobus.pkt_size_system.bridge.master::system.pc.fake_floppy.pio            5                       # Cumulative packet size per connected master and slave (bytes)
system.iobus.pkt_size_system.bridge.master::system.pc.pciconfig.pio        35514                       # Cumulative packet size per connected master and slave (bytes)
system.iobus.pkt_size_system.bridge.master::total      4412198                       # Cumulative packet size per connected master and slave (bytes)
system.iobus.pkt_size_system.pc.south_bridge.ide.dma::system.iocache.cpu_side      2703376                       # Cumulative packet size per connected master and slave (bytes)
system.iobus.pkt_size_system.pc.south_bridge.ide.dma::total      2703376                       # Cumulative packet size per connected master and slave (bytes)
system.iobus.pkt_size_system.pc.south_bridge.io_apic.int_master::system.apicbridge.slave         1812                       # Cumulative packet size per connected master and slave (bytes)
system.iobus.pkt_size_system.pc.south_bridge.io_apic.int_master::total         1812                       # Cumulative packet size per connected master and slave (bytes)
system.iobus.pkt_size::total                  7117386                       # Cumulative packet size per connected master and slave (bytes)
system.cpu_clk_domain.clock                       333                       # Clock period in ticks
system.cpu0.apic_clk_domain.clock                5328                       # Clock period in ticks
system.cpu0.numCycles                     14167543079                       # number of cpu cycles simulated
system.cpu0.numWorkItemsStarted                     0                       # number of work items this cpu started
system.cpu0.numWorkItemsCompleted                   0                       # number of work items this cpu completed
system.cpu0.committedInsts                  293794205                       # Number of instructions committed
system.cpu0.committedOps                    765131893                       # Number of ops (including micro ops) committed
system.cpu0.num_int_alu_accesses            676143852                       # Number of integer alu accesses
system.cpu0.num_fp_alu_accesses                 10183                       # Number of float alu accesses
system.cpu0.num_func_calls                    2397866                       # number of times a function call or return occured
system.cpu0.num_conditional_control_insts     94107717                       # number of instructions that are conditional controls
system.cpu0.num_int_insts                   676143852                       # number of integer instructions
system.cpu0.num_fp_insts                        10183                       # number of float instructions
system.cpu0.num_int_register_reads         1044906087                       # number of times the integer registers were read
system.cpu0.num_int_register_writes         570929357                       # number of times the integer registers were written
system.cpu0.num_fp_register_reads               16976                       # number of times the floating registers were read
system.cpu0.num_fp_register_writes               7994                       # number of times the floating registers were written
system.cpu0.num_cc_register_reads           485378470                       # number of times the CC registers were read
system.cpu0.num_cc_register_writes          209996463                       # number of times the CC registers were written
system.cpu0.num_mem_refs                    104884345                       # number of memory refs
system.cpu0.num_load_insts                   90565470                       # Number of load instructions
system.cpu0.num_store_insts                  14318875                       # Number of store instructions
system.cpu0.num_idle_cycles              13307850609.864048                       # Number of idle cycles
system.cpu0.num_busy_cycles              859692469.135953                       # Number of busy cycles
system.cpu0.not_idle_fraction                0.060680                       # Percentage of non-idle cycles
system.cpu0.idle_fraction                    0.939320                       # Percentage of idle cycles
system.cpu0.Branches                         98072178                       # Number of branches fetched
system.cpu0.op_class::No_OpClass              7545495      0.99%      0.99% # Class of executed instruction
system.cpu0.op_class::IntAlu                652493128     85.28%     86.26% # Class of executed instruction
system.cpu0.op_class::IntMult                  181841      0.02%     86.29% # Class of executed instruction
system.cpu0.op_class::IntDiv                    19870      0.00%     86.29% # Class of executed instruction
system.cpu0.op_class::FloatAdd                   7314      0.00%     86.29% # Class of executed instruction
system.cpu0.op_class::FloatCmp                      0      0.00%     86.29% # Class of executed instruction
system.cpu0.op_class::FloatCvt                      0      0.00%     86.29% # Class of executed instruction
system.cpu0.op_class::FloatMult                     0      0.00%     86.29% # Class of executed instruction
system.cpu0.op_class::FloatDiv                      0      0.00%     86.29% # Class of executed instruction
system.cpu0.op_class::FloatSqrt                     0      0.00%     86.29% # Class of executed instruction
system.cpu0.op_class::SimdAdd                       0      0.00%     86.29% # Class of executed instruction
system.cpu0.op_class::SimdAddAcc                    0      0.00%     86.29% # Class of executed instruction
system.cpu0.op_class::SimdAlu                       0      0.00%     86.29% # Class of executed instruction
system.cpu0.op_class::SimdCmp                       0      0.00%     86.29% # Class of executed instruction
system.cpu0.op_class::SimdCvt                       0      0.00%     86.29% # Class of executed instruction
system.cpu0.op_class::SimdMisc                      0      0.00%     86.29% # Class of executed instruction
system.cpu0.op_class::SimdMult                      0      0.00%     86.29% # Class of executed instruction
system.cpu0.op_class::SimdMultAcc                   0      0.00%     86.29% # Class of executed instruction
system.cpu0.op_class::SimdShift                     0      0.00%     86.29% # Class of executed instruction
system.cpu0.op_class::SimdShiftAcc                  0      0.00%     86.29% # Class of executed instruction
system.cpu0.op_class::SimdSqrt                      0      0.00%     86.29% # Class of executed instruction
system.cpu0.op_class::SimdFloatAdd                  0      0.00%     86.29% # Class of executed instruction
system.cpu0.op_class::SimdFloatAlu                  0      0.00%     86.29% # Class of executed instruction
system.cpu0.op_class::SimdFloatCmp                  0      0.00%     86.29% # Class of executed instruction
system.cpu0.op_class::SimdFloatCvt                  0      0.00%     86.29% # Class of executed instruction
system.cpu0.op_class::SimdFloatDiv                  0      0.00%     86.29% # Class of executed instruction
system.cpu0.op_class::SimdFloatMisc                 0      0.00%     86.29% # Class of executed instruction
system.cpu0.op_class::SimdFloatMult                 0      0.00%     86.29% # Class of executed instruction
system.cpu0.op_class::SimdFloatMultAcc              0      0.00%     86.29% # Class of executed instruction
system.cpu0.op_class::SimdFloatSqrt                 0      0.00%     86.29% # Class of executed instruction
system.cpu0.op_class::MemRead                90565470     11.84%     98.13% # Class of executed instruction
system.cpu0.op_class::MemWrite               14318875      1.87%    100.00% # Class of executed instruction
system.cpu0.op_class::IprAccess                     0      0.00%    100.00% # Class of executed instruction
system.cpu0.op_class::InstPrefetch                  0      0.00%    100.00% # Class of executed instruction
system.cpu0.op_class::total                 765131993                       # Class of executed instruction
system.cpu0.kern.inst.arm                           0                       # number of arm instructions executed
system.cpu0.kern.inst.quiesce                    3763                       # number of quiesce instructions executed
system.cpu0.icache.tags.replacements           509594                       # number of replacements
system.cpu0.icache.tags.tagsinuse          511.642124                       # Cycle average of tags in use
system.cpu0.icache.tags.total_refs          388543050                       # Total number of references to valid blocks.
system.cpu0.icache.tags.sampled_refs           509594                       # Sample count of references to valid blocks.
system.cpu0.icache.tags.avg_refs           762.456092                       # Average number of references to valid blocks.
system.cpu0.icache.tags.warmup_cycle      33884916831                       # Cycle when the warmup percentage was hit.
system.cpu0.icache.tags.occ_blocks::cpu0.inst   511.642124                       # Average occupied blocks per requestor
system.cpu0.icache.tags.occ_percent::cpu0.inst     0.999301                       # Average percentage of cache occupancy
system.cpu0.icache.tags.occ_percent::total     0.999301                       # Average percentage of cache occupancy
system.cpu0.icache.tags.occ_task_id_blocks::1024          512                       # Occupied blocks per task id
system.cpu0.icache.tags.age_task_id_blocks_1024::0          166                       # Occupied blocks per task id
system.cpu0.icache.tags.age_task_id_blocks_1024::1          333                       # Occupied blocks per task id
system.cpu0.icache.tags.age_task_id_blocks_1024::2           11                       # Occupied blocks per task id
system.cpu0.icache.tags.age_task_id_blocks_1024::3            2                       # Occupied blocks per task id
system.cpu0.icache.tags.occ_task_id_percent::1024            1                       # Percentage of cache occupancy per task id
system.cpu0.icache.tags.tag_accesses        778809671                       # Number of tag accesses
system.cpu0.icache.tags.data_accesses       778809671                       # Number of data accesses
system.cpu0.icache.ReadReq_hits::cpu0.inst    388639660                       # number of ReadReq hits
system.cpu0.icache.ReadReq_hits::total      388639660                       # number of ReadReq hits
system.cpu0.icache.demand_hits::cpu0.inst    388639660                       # number of demand (read+write) hits
system.cpu0.icache.demand_hits::total       388639660                       # number of demand (read+write) hits
system.cpu0.icache.overall_hits::cpu0.inst    388639660                       # number of overall hits
system.cpu0.icache.overall_hits::total      388639660                       # number of overall hits
system.cpu0.icache.ReadReq_misses::cpu0.inst       510117                       # number of ReadReq misses
system.cpu0.icache.ReadReq_misses::total       510117                       # number of ReadReq misses
system.cpu0.icache.demand_misses::cpu0.inst       510117                       # number of demand (read+write) misses
system.cpu0.icache.demand_misses::total        510117                       # number of demand (read+write) misses
system.cpu0.icache.overall_misses::cpu0.inst       510117                       # number of overall misses
system.cpu0.icache.overall_misses::total       510117                       # number of overall misses
system.cpu0.icache.ReadReq_accesses::cpu0.inst    389149777                       # number of ReadReq accesses(hits+misses)
system.cpu0.icache.ReadReq_accesses::total    389149777                       # number of ReadReq accesses(hits+misses)
system.cpu0.icache.demand_accesses::cpu0.inst    389149777                       # number of demand (read+write) accesses
system.cpu0.icache.demand_accesses::total    389149777                       # number of demand (read+write) accesses
system.cpu0.icache.overall_accesses::cpu0.inst    389149777                       # number of overall (read+write) accesses
system.cpu0.icache.overall_accesses::total    389149777                       # number of overall (read+write) accesses
system.cpu0.icache.ReadReq_miss_rate::cpu0.inst     0.001311                       # miss rate for ReadReq accesses
system.cpu0.icache.ReadReq_miss_rate::total     0.001311                       # miss rate for ReadReq accesses
system.cpu0.icache.demand_miss_rate::cpu0.inst     0.001311                       # miss rate for demand accesses
system.cpu0.icache.demand_miss_rate::total     0.001311                       # miss rate for demand accesses
system.cpu0.icache.overall_miss_rate::cpu0.inst     0.001311                       # miss rate for overall accesses
system.cpu0.icache.overall_miss_rate::total     0.001311                       # miss rate for overall accesses
system.cpu0.icache.blocked_cycles::no_mshrs            0                       # number of cycles access was blocked
system.cpu0.icache.blocked_cycles::no_targets            0                       # number of cycles access was blocked
system.cpu0.icache.blocked::no_mshrs                0                       # number of cycles access was blocked
system.cpu0.icache.blocked::no_targets              0                       # number of cycles access was blocked
system.cpu0.icache.avg_blocked_cycles::no_mshrs          nan                       # average number of cycles each access was blocked
system.cpu0.icache.avg_blocked_cycles::no_targets          nan                       # average number of cycles each access was blocked
system.cpu0.icache.fast_writes                      0                       # number of fast writes performed
system.cpu0.icache.cache_copies                     0                       # number of cache copies performed
system.cpu0.icache.no_allocate_misses               0                       # Number of misses that were no-allocate
system.cpu0.itb_walker_cache.tags.replacements         1025                       # number of replacements
system.cpu0.itb_walker_cache.tags.tagsinuse     3.007929                       # Cycle average of tags in use
system.cpu0.itb_walker_cache.tags.total_refs          158                       # Total number of references to valid blocks.
system.cpu0.itb_walker_cache.tags.sampled_refs         1025                       # Sample count of references to valid blocks.
system.cpu0.itb_walker_cache.tags.avg_refs     0.154146                       # Average number of references to valid blocks.
system.cpu0.itb_walker_cache.tags.warmup_cycle            0                       # Cycle when the warmup percentage was hit.
system.cpu0.itb_walker_cache.tags.occ_blocks::cpu0.itb.walker     3.007929                       # Average occupied blocks per requestor
system.cpu0.itb_walker_cache.tags.occ_percent::cpu0.itb.walker     0.187996                       # Average percentage of cache occupancy
system.cpu0.itb_walker_cache.tags.occ_percent::total     0.187996                       # Average percentage of cache occupancy
system.cpu0.itb_walker_cache.tags.occ_task_id_blocks::1024           12                       # Occupied blocks per task id
system.cpu0.itb_walker_cache.tags.age_task_id_blocks_1024::0            5                       # Occupied blocks per task id
system.cpu0.itb_walker_cache.tags.age_task_id_blocks_1024::1            3                       # Occupied blocks per task id
system.cpu0.itb_walker_cache.tags.age_task_id_blocks_1024::2            4                       # Occupied blocks per task id
system.cpu0.itb_walker_cache.tags.occ_task_id_percent::1024     0.750000                       # Percentage of cache occupancy per task id
system.cpu0.itb_walker_cache.tags.tag_accesses         4046                       # Number of tag accesses
system.cpu0.itb_walker_cache.tags.data_accesses         4046                       # Number of data accesses
system.cpu0.itb_walker_cache.ReadReq_hits::cpu0.itb.walker          182                       # number of ReadReq hits
system.cpu0.itb_walker_cache.ReadReq_hits::total          182                       # number of ReadReq hits
system.cpu0.itb_walker_cache.WriteReq_hits::cpu0.itb.walker            2                       # number of WriteReq hits
system.cpu0.itb_walker_cache.WriteReq_hits::total            2                       # number of WriteReq hits
system.cpu0.itb_walker_cache.demand_hits::cpu0.itb.walker          184                       # number of demand (read+write) hits
system.cpu0.itb_walker_cache.demand_hits::total          184                       # number of demand (read+write) hits
system.cpu0.itb_walker_cache.overall_hits::cpu0.itb.walker          184                       # number of overall hits
system.cpu0.itb_walker_cache.overall_hits::total          184                       # number of overall hits
system.cpu0.itb_walker_cache.ReadReq_misses::cpu0.itb.walker         1226                       # number of ReadReq misses
system.cpu0.itb_walker_cache.ReadReq_misses::total         1226                       # number of ReadReq misses
system.cpu0.itb_walker_cache.demand_misses::cpu0.itb.walker         1226                       # number of demand (read+write) misses
system.cpu0.itb_walker_cache.demand_misses::total         1226                       # number of demand (read+write) misses
system.cpu0.itb_walker_cache.overall_misses::cpu0.itb.walker         1226                       # number of overall misses
system.cpu0.itb_walker_cache.overall_misses::total         1226                       # number of overall misses
system.cpu0.itb_walker_cache.ReadReq_accesses::cpu0.itb.walker         1408                       # number of ReadReq accesses(hits+misses)
system.cpu0.itb_walker_cache.ReadReq_accesses::total         1408                       # number of ReadReq accesses(hits+misses)
system.cpu0.itb_walker_cache.WriteReq_accesses::cpu0.itb.walker            2                       # number of WriteReq accesses(hits+misses)
system.cpu0.itb_walker_cache.WriteReq_accesses::total            2                       # number of WriteReq accesses(hits+misses)
system.cpu0.itb_walker_cache.demand_accesses::cpu0.itb.walker         1410                       # number of demand (read+write) accesses
system.cpu0.itb_walker_cache.demand_accesses::total         1410                       # number of demand (read+write) accesses
system.cpu0.itb_walker_cache.overall_accesses::cpu0.itb.walker         1410                       # number of overall (read+write) accesses
system.cpu0.itb_walker_cache.overall_accesses::total         1410                       # number of overall (read+write) accesses
system.cpu0.itb_walker_cache.ReadReq_miss_rate::cpu0.itb.walker     0.870739                       # miss rate for ReadReq accesses
system.cpu0.itb_walker_cache.ReadReq_miss_rate::total     0.870739                       # miss rate for ReadReq accesses
system.cpu0.itb_walker_cache.demand_miss_rate::cpu0.itb.walker     0.869504                       # miss rate for demand accesses
system.cpu0.itb_walker_cache.demand_miss_rate::total     0.869504                       # miss rate for demand accesses
system.cpu0.itb_walker_cache.overall_miss_rate::cpu0.itb.walker     0.869504                       # miss rate for overall accesses
system.cpu0.itb_walker_cache.overall_miss_rate::total     0.869504                       # miss rate for overall accesses
system.cpu0.itb_walker_cache.blocked_cycles::no_mshrs            0                       # number of cycles access was blocked
system.cpu0.itb_walker_cache.blocked_cycles::no_targets            0                       # number of cycles access was blocked
system.cpu0.itb_walker_cache.blocked::no_mshrs            0                       # number of cycles access was blocked
system.cpu0.itb_walker_cache.blocked::no_targets            0                       # number of cycles access was blocked
system.cpu0.itb_walker_cache.avg_blocked_cycles::no_mshrs          nan                       # average number of cycles each access was blocked
system.cpu0.itb_walker_cache.avg_blocked_cycles::no_targets          nan                       # average number of cycles each access was blocked
system.cpu0.itb_walker_cache.fast_writes            0                       # number of fast writes performed
system.cpu0.itb_walker_cache.cache_copies            0                       # number of cache copies performed
system.cpu0.itb_walker_cache.writebacks::writebacks            2                       # number of writebacks
system.cpu0.itb_walker_cache.writebacks::total            2                       # number of writebacks
system.cpu0.itb_walker_cache.no_allocate_misses            0                       # Number of misses that were no-allocate
system.cpu0.dtb_walker_cache.tags.replacements          728                       # number of replacements
system.cpu0.dtb_walker_cache.tags.tagsinuse     7.851919                       # Cycle average of tags in use
system.cpu0.dtb_walker_cache.tags.total_refs          258                       # Total number of references to valid blocks.
system.cpu0.dtb_walker_cache.tags.sampled_refs          728                       # Sample count of references to valid blocks.
system.cpu0.dtb_walker_cache.tags.avg_refs     0.354396                       # Average number of references to valid blocks.
system.cpu0.dtb_walker_cache.tags.warmup_cycle            0                       # Cycle when the warmup percentage was hit.
system.cpu0.dtb_walker_cache.tags.occ_blocks::cpu0.dtb.walker     7.851919                       # Average occupied blocks per requestor
system.cpu0.dtb_walker_cache.tags.occ_percent::cpu0.dtb.walker     0.490745                       # Average percentage of cache occupancy
system.cpu0.dtb_walker_cache.tags.occ_percent::total     0.490745                       # Average percentage of cache occupancy
system.cpu0.dtb_walker_cache.tags.occ_task_id_blocks::1024           14                       # Occupied blocks per task id
system.cpu0.dtb_walker_cache.tags.age_task_id_blocks_1024::0            5                       # Occupied blocks per task id
system.cpu0.dtb_walker_cache.tags.age_task_id_blocks_1024::1            4                       # Occupied blocks per task id
system.cpu0.dtb_walker_cache.tags.age_task_id_blocks_1024::2            5                       # Occupied blocks per task id
system.cpu0.dtb_walker_cache.tags.occ_task_id_percent::1024     0.875000                       # Percentage of cache occupancy per task id
system.cpu0.dtb_walker_cache.tags.tag_accesses         3268                       # Number of tag accesses
system.cpu0.dtb_walker_cache.tags.data_accesses         3268                       # Number of data accesses
system.cpu0.dtb_walker_cache.ReadReq_hits::cpu0.dtb.walker          305                       # number of ReadReq hits
system.cpu0.dtb_walker_cache.ReadReq_hits::total          305                       # number of ReadReq hits
system.cpu0.dtb_walker_cache.demand_hits::cpu0.dtb.walker          305                       # number of demand (read+write) hits
system.cpu0.dtb_walker_cache.demand_hits::total          305                       # number of demand (read+write) hits
system.cpu0.dtb_walker_cache.overall_hits::cpu0.dtb.walker          305                       # number of overall hits
system.cpu0.dtb_walker_cache.overall_hits::total          305                       # number of overall hits
system.cpu0.dtb_walker_cache.ReadReq_misses::cpu0.dtb.walker          886                       # number of ReadReq misses
system.cpu0.dtb_walker_cache.ReadReq_misses::total          886                       # number of ReadReq misses
system.cpu0.dtb_walker_cache.demand_misses::cpu0.dtb.walker          886                       # number of demand (read+write) misses
system.cpu0.dtb_walker_cache.demand_misses::total          886                       # number of demand (read+write) misses
system.cpu0.dtb_walker_cache.overall_misses::cpu0.dtb.walker          886                       # number of overall misses
system.cpu0.dtb_walker_cache.overall_misses::total          886                       # number of overall misses
system.cpu0.dtb_walker_cache.ReadReq_accesses::cpu0.dtb.walker         1191                       # number of ReadReq accesses(hits+misses)
system.cpu0.dtb_walker_cache.ReadReq_accesses::total         1191                       # number of ReadReq accesses(hits+misses)
system.cpu0.dtb_walker_cache.demand_accesses::cpu0.dtb.walker         1191                       # number of demand (read+write) accesses
system.cpu0.dtb_walker_cache.demand_accesses::total         1191                       # number of demand (read+write) accesses
system.cpu0.dtb_walker_cache.overall_accesses::cpu0.dtb.walker         1191                       # number of overall (read+write) accesses
[...]
system.cpu1.num_func_calls                          0                       # number of times a function call or return occured
system.cpu1.num_conditional_control_insts            0                       # number of instructions that are conditional controls
system.cpu1.num_int_insts                           0                       # number of integer instructions
system.cpu1.num_fp_insts                            0                       # number of float instructions
system.cpu1.num_int_register_reads                  0                       # number of times the integer registers were read
system.cpu1.num_int_register_writes                 0                       # number of times the integer registers were written
system.cpu1.num_fp_register_reads                   0                       # number of times the floating registers were read
system.cpu1.num_fp_register_writes                  0                       # number of times the floating registers were written
system.cpu1.num_mem_refs                            0                       # number of memory refs
system.cpu1.num_load_insts                          0                       # Number of load instructions
system.cpu1.num_store_insts                         0                       # Number of store instructions
system.cpu1.num_idle_cycles                         0                       # Number of idle cycles
system.cpu1.num_busy_cycles                         0                       # Number of busy cycles
system.cpu1.not_idle_fraction                       0                       # Percentage of non-idle cycles
system.cpu1.idle_fraction                           1                       # Percentage of idle cycles
system.cpu1.op_class::No_OpClass                    0                       # Class of executed instruction
system.cpu1.op_class::IntAlu                        0                       # Class of executed instruction
system.cpu1.op_class::IntMult                       0                       # Class of executed instruction
system.cpu1.op_class::IntDiv                        0                       # Class of executed instruction
system.cpu1.op_class::FloatAdd                      0                       # Class of executed instruction
system.cpu1.op_class::FloatCmp                      0                       # Class of executed instruction
system.cpu1.op_class::FloatCvt                      0                       # Class of executed instruction
system.cpu1.op_class::FloatMult                     0                       # Class of executed instruction
system.cpu1.op_class::FloatDiv                      0                       # Class of executed instruction
system.cpu1.op_class::FloatSqrt                     0                       # Class of executed instruction
system.cpu1.op_class::SimdAdd                       0                       # Class of executed instruction
system.cpu1.op_class::SimdAddAcc                    0                       # Class of executed instruction
system.cpu1.op_class::SimdAlu                       0                       # Class of executed instruction
system.cpu1.op_class::SimdCmp                       0                       # Class of executed instruction
system.cpu1.op_class::SimdCvt                       0                       # Class of executed instruction
system.cpu1.op_class::SimdMisc                      0                       # Class of executed instruction
system.cpu1.op_class::SimdMult                      0                       # Class of executed instruction
system.cpu1.op_class::SimdMultAcc                   0                       # Class of executed instruction
system.cpu1.op_class::SimdShift                     0                       # Class of executed instruction
system.cpu1.op_class::SimdShiftAcc                  0                       # Class of executed instruction
system.cpu1.op_class::SimdSqrt                      0                       # Class of executed instruction
system.cpu1.op_class::SimdFloatAdd                  0                       # Class of executed instruction
system.cpu1.op_class::SimdFloatAlu                  0                       # Class of executed instruction
system.cpu1.op_class::SimdFloatCmp                  0                       # Class of executed instruction
system.cpu1.op_class::SimdFloatCvt                  0                       # Class of executed instruction
system.cpu1.op_class::SimdFloatDiv                  0                       # Class of executed instruction
system.cpu1.op_class::SimdFloatMisc                 0                       # Class of executed instruction
system.cpu1.op_class::SimdFloatMult                 0                       # Class of executed instruction
system.cpu1.op_class::SimdFloatMultAcc              0                       # Class of executed instruction
system.cpu1.op_class::SimdFloatSqrt                 0                       # Class of executed instruction
system.cpu1.op_class::MemRead                       0                       # Class of executed instruction
system.cpu1.op_class::MemWrite                      0                       # Class of executed instruction
system.cpu1.op_class::IprAccess                     0                       # Class of executed instruction
system.cpu1.op_class::InstPrefetch                  0                       # Class of executed instruction
system.cpu1.op_class::total                         0                       # Class of executed instruction
system.cpu1.kern.inst.arm                           0                       # number of arm instructions executed
system.cpu1.kern.inst.quiesce                       0                       # number of quiesce instructions executed
system.cpu1.icache.tags.replacements                0                       # number of replacements
system.cpu1.icache.tags.tagsinuse                 512                       # Cycle average of tags in use
system.cpu1.icache.tags.total_refs           15099885                       # Total number of references to valid blocks.
system.cpu1.icache.tags.sampled_refs              512                       # Sample count of references to valid blocks.
system.cpu1.icache.tags.avg_refs         29491.962891                       # Average number of references to valid blocks.
system.cpu1.icache.tags.warmup_cycle                0                       # Cycle when the warmup percentage was hit.
system.cpu1.icache.tags.occ_blocks::cpu1.inst          512                       # Average occupied blocks per requestor
system.cpu1.icache.tags.occ_percent::cpu1.inst            1                       # Average percentage of cache occupancy
system.cpu1.icache.tags.occ_percent::total            1                       # Average percentage of cache occupancy
system.cpu1.icache.tags.occ_task_id_blocks::1024          512                       # Occupied blocks per task id
system.cpu1.icache.tags.age_task_id_blocks_1024::2           12                       # Occupied blocks per task id
system.cpu1.icache.tags.age_task_id_blocks_1024::3          370                       # Occupied blocks per task id
system.cpu1.icache.tags.age_task_id_blocks_1024::4          130                       # Occupied blocks per task id
system.cpu1.icache.tags.occ_task_id_percent::1024            1                       # Percentage of cache occupancy per task id
system.cpu1.icache.tags.tag_accesses                0                       # Number of tag accesses
system.cpu1.icache.tags.data_accesses               0                       # Number of data accesses
system.cpu1.icache.blocked_cycles::no_mshrs            0                       # number of cycles access was blocked
system.cpu1.icache.blocked_cycles::no_targets            0                       # number of cycles access was blocked
system.cpu1.icache.blocked::no_mshrs                0                       # number of cycles access was blocked
system.cpu1.icache.blocked::no_targets              0                       # number of cycles access was blocked
system.cpu1.icache.avg_blocked_cycles::no_mshrs          nan                       # average number of cycles each access was blocked
system.cpu1.icache.avg_blocked_cycles::no_targets          nan                       # average number of cycles each access was blocked
system.cpu1.icache.fast_writes                      0                       # number of fast writes performed
system.cpu1.icache.cache_copies                     0                       # number of cache copies performed
system.cpu1.icache.no_allocate_misses               0                       # Number of misses that were no-allocate
system.cpu1.itb_walker_cache.tags.replacements            0                       # number of replacements
system.cpu1.itb_walker_cache.tags.tagsinuse            1                       # Cycle average of tags in use
system.cpu1.itb_walker_cache.tags.total_refs            5                       # Total number of references to valid blocks.
system.cpu1.itb_walker_cache.tags.sampled_refs            1                       # Sample count of references to valid blocks.
system.cpu1.itb_walker_cache.tags.avg_refs            5                       # Average number of references to valid blocks.
system.cpu1.itb_walker_cache.tags.warmup_cycle            0                       # Cycle when the warmup percentage was hit.
system.cpu1.itb_walker_cache.tags.occ_blocks::cpu1.itb.walker            1                       # Average occupied blocks per requestor
system.cpu1.itb_walker_cache.tags.occ_percent::cpu1.itb.walker     0.062500                       # Average percentage of cache occupancy
system.cpu1.itb_walker_cache.tags.occ_percent::total     0.062500                       # Average percentage of cache occupancy
system.cpu1.itb_walker_cache.tags.occ_task_id_blocks::1024            1                       # Occupied blocks per task id
system.cpu1.itb_walker_cache.tags.age_task_id_blocks_1024::4            1                       # Occupied blocks per task id
system.cpu1.itb_walker_cache.tags.occ_task_id_percent::1024     0.062500                       # Percentage of cache occupancy per task id
system.cpu1.itb_walker_cache.tags.tag_accesses            0                       # Number of tag accesses
system.cpu1.itb_walker_cache.tags.data_accesses            0                       # Number of data accesses
system.cpu1.itb_walker_cache.blocked_cycles::no_mshrs            0                       # number of cycles access was blocked
system.cpu1.itb_walker_cache.blocked_cycles::no_targets            0                       # number of cycles access was blocked
system.cpu1.itb_walker_cache.blocked::no_mshrs            0                       # number of cycles access was blocked
system.cpu1.itb_walker_cache.blocked::no_targets            0                       # number of cycles access was blocked
system.cpu1.itb_walker_cache.avg_blocked_cycles::no_mshrs          nan                       # average number of cycles each access was blocked
system.cpu1.itb_walker_cache.avg_blocked_cycles::no_targets          nan                       # average number of cycles each access was blocked
system.cpu1.itb_walker_cache.fast_writes            0                       # number of fast writes performed
system.cpu1.itb_walker_cache.cache_copies            0                       # number of cache copies performed
system.cpu1.itb_walker_cache.no_allocate_misses            0                       # Number of misses that were no-allocate
system.cpu1.dtb_walker_cache.tags.replacements            0                       # number of replacements
system.cpu1.dtb_walker_cache.tags.tagsinuse            5                       # Cycle average of tags in use
system.cpu1.dtb_walker_cache.tags.total_refs            7                       # Total number of references to valid blocks.
system.cpu1.dtb_walker_cache.tags.sampled_refs            5                       # Sample count of references to valid blocks.
system.cpu1.dtb_walker_cache.tags.avg_refs     1.400000                       # Average number of references to valid blocks.
system.cpu1.dtb_walker_cache.tags.warmup_cycle            0                       # Cycle when the warmup percentage was hit.
system.cpu1.dtb_walker_cache.tags.occ_blocks::cpu1.dtb.walker            5                       # Average occupied blocks per requestor
system.cpu1.dtb_walker_cache.tags.occ_percent::cpu1.dtb.walker     0.312500                       # Average percentage of cache occupancy
system.cpu1.dtb_walker_cache.tags.occ_percent::total     0.312500                       # Average percentage of cache occupancy
system.cpu1.dtb_walker_cache.tags.occ_task_id_blocks::1024            5                       # Occupied blocks per task id
system.cpu1.dtb_walker_cache.tags.age_task_id_blocks_1024::3            5                       # Occupied blocks per task id
system.cpu1.dtb_walker_cache.tags.occ_task_id_percent::1024     0.312500                       # Percentage of cache occupancy per task id
system.cpu1.dtb_walker_cache.tags.tag_accesses            0                       # Number of tag accesses
system.cpu1.dtb_walker_cache.tags.data_accesses            0                       # Number of data accesses
system.cpu1.dtb_walker_cache.blocked_cycles::no_mshrs            0                       # number of cycles access was blocked
system.cpu1.dtb_walker_cache.blocked_cycles::no_targets            0                       # number of cycles access was blocked
system.cpu1.dtb_walker_cache.blocked::no_mshrs            0                       # number of cycles access was blocked
system.cpu1.dtb_walker_cache.blocked::no_targets            0                       # number of cycles access was blocked
system.cpu1.dtb_walker_cache.avg_blocked_cycles::no_mshrs          nan                       # average number of cycles each access was blocked
system.cpu1.dtb_walker_cache.avg_blocked_cycles::no_targets          nan                       # average number of cycles each access was blocked
system.cpu1.dtb_walker_cache.fast_writes            0                       # number of fast writes performed
system.cpu1.dtb_walker_cache.cache_copies            0                       # number of cache copies performed
system.cpu1.dtb_walker_cache.no_allocate_misses            0                       # Number of misses that were no-allocate
system.cpu1.dcache.tags.replacements                0                       # number of replacements
system.cpu1.dcache.tags.tagsinuse                 924                       # Cycle average of tags in use
system.cpu1.dcache.tags.total_refs             222577                       # Total number of references to valid blocks.
system.cpu1.dcache.tags.sampled_refs              924                       # Sample count of references to valid blocks.
system.cpu1.dcache.tags.avg_refs           240.884199                       # Average number of references to valid blocks.
system.cpu1.dcache.tags.warmup_cycle                0                       # Cycle when the warmup percentage was hit.
system.cpu1.dcache.tags.occ_blocks::cpu1.data          924                       # Average occupied blocks per requestor
system.cpu1.dcache.tags.occ_percent::cpu1.data     0.902344                       # Average percentage of cache occupancy
system.cpu1.dcache.tags.occ_percent::total     0.902344                       # Average percentage of cache occupancy
system.cpu1.dcache.tags.occ_task_id_blocks::1024          924                       # Occupied blocks per task id
system.cpu1.dcache.tags.age_task_id_blocks_1024::2           23                       # Occupied blocks per task id
system.cpu1.dcache.tags.age_task_id_blocks_1024::3          901                       # Occupied blocks per task id
system.cpu1.dcache.tags.occ_task_id_percent::1024     0.902344                       # Percentage of cache occupancy per task id
system.cpu1.dcache.tags.tag_accesses                0                       # Number of tag accesses
system.cpu1.dcache.tags.data_accesses               0                       # Number of data accesses
system.cpu1.dcache.blocked_cycles::no_mshrs            0                       # number of cycles access was blocked
system.cpu1.dcache.blocked_cycles::no_targets            0                       # number of cycles access was blocked
system.cpu1.dcache.blocked::no_mshrs                0                       # number of cycles access was blocked
system.cpu1.dcache.blocked::no_targets              0                       # number of cycles access was blocked
system.cpu1.dcache.avg_blocked_cycles::no_mshrs          nan                       # average number of cycles each access was blocked
system.cpu1.dcache.avg_blocked_cycles::no_targets          nan                       # average number of cycles each access was blocked
system.cpu1.dcache.fast_writes                      0                       # number of fast writes performed
system.cpu1.dcache.cache_copies                     0                       # number of cache copies performed
system.cpu1.dcache.no_allocate_misses               0                       # Number of misses that were no-allocate
system.iocache.tags.replacements                    0                       # number of replacements
system.iocache.tags.tagsinuse                      16                       # Cycle average of tags in use
system.iocache.tags.total_refs                      0                       # Total number of references to valid blocks.
system.iocache.tags.sampled_refs                   16                       # Sample count of references to valid blocks.
system.iocache.tags.avg_refs                        0                       # Average number of references to valid blocks.
system.iocache.tags.warmup_cycle                    0                       # Cycle when the warmup percentage was hit.
system.iocache.tags.occ_blocks::pc.south_bridge.ide           16                       # Average occupied blocks per requestor
system.iocache.tags.occ_percent::pc.south_bridge.ide            1                       # Average percentage of cache occupancy
system.iocache.tags.occ_percent::total              1                       # Average percentage of cache occupancy
system.iocache.tags.occ_task_id_blocks::1023           16                       # Occupied blocks per task id
system.iocache.tags.age_task_id_blocks_1023::4           16                       # Occupied blocks per task id
system.iocache.tags.occ_task_id_percent::1023            1                       # Percentage of cache occupancy per task id
system.iocache.tags.tag_accesses                    0                       # Number of tag accesses
system.iocache.tags.data_accesses                   0                       # Number of data accesses
system.iocache.blocked_cycles::no_mshrs             0                       # number of cycles access was blocked
system.iocache.blocked_cycles::no_targets            0                       # number of cycles access was blocked
system.iocache.blocked::no_mshrs                    0                       # number of cycles access was blocked
system.iocache.blocked::no_targets                  0                       # number of cycles access was blocked
system.iocache.avg_blocked_cycles::no_mshrs          nan                       # average number of cycles each access was blocked
system.iocache.avg_blocked_cycles::no_targets          nan                       # average number of cycles each access was blocked
system.iocache.fast_writes                          0                       # number of fast writes performed
system.iocache.cache_copies                         0                       # number of cache copies performed
system.iocache.no_allocate_misses                   0                       # Number of misses that were no-allocate

---------- End Simulation Statistics   ----------
