
---------- Begin Simulation Statistics ----------
sim_seconds                                  3.061221                       # Number of seconds simulated
sim_ticks                                3061220700000                       # Number of ticks simulated
final_tick                               3061220700000                       # Number of ticks from beginning of simulation (restored from checkpoints and never reset)
sim_freq                                 1000000000000                       # Frequency of simulated ticks
host_inst_rate                                 259102                       # Simulator instruction rate (inst/s)
host_op_rate                                   259102                       # Simulator op (including micro ops) rate (op/s)
host_tick_rate                             8660594689                       # Simulator tick rate (ticks/s)
host_mem_usage                                 456428                       # Number of bytes of host memory used
host_seconds                                   353.47                       # Real time elapsed on the host
sim_insts                                    91583673                       # Number of instructions simulated
sim_ops                                      91583673                       # Number of ops (including micro ops) simulated
system.voltage_domain.voltage                       1                       # Voltage in Volts
system.clk_domain.clock                          1000                       # Clock period in ticks
system.mem_ctrls.bytes_read::cpu.inst        99669440                       # Number of bytes read from this memory
system.mem_ctrls.bytes_read::cpu.data       183513600                       # Number of bytes read from this memory
system.mem_ctrls.bytes_read::tsunami.ide         4032                       # Number of bytes read from this memory
system.mem_ctrls.bytes_read::total          283187072                       # Number of bytes read from this memory
system.mem_ctrls.bytes_inst_read::cpu.inst     99669440                       # Number of instructions bytes read from this memory
system.mem_ctrls.bytes_inst_read::total      99669440                       # Number of instructions bytes read from this memory
system.mem_ctrls.bytes_written::writebacks     30872768                       # Number of bytes written to this memory
system.mem_ctrls.bytes_written::tsunami.ide      2832384                       # Number of bytes written to this memory
system.mem_ctrls.bytes_written::total        33705152                       # Number of bytes written to this memory
system.mem_ctrls.num_reads::cpu.inst          1557335                       # Number of read requests responded to by this memory
system.mem_ctrls.num_reads::cpu.data          2867400                       # Number of read requests responded to by this memory
system.mem_ctrls.num_reads::tsunami.ide            63                       # Number of read requests responded to by this memory
system.mem_ctrls.num_reads::total             4424798                       # Number of read requests responded to by this memory
system.mem_ctrls.num_writes::writebacks        482387                       # Number of write requests responded to by this memory
system.mem_ctrls.num_writes::tsunami.ide        44256                       # Number of write requests responded to by this memory
system.mem_ctrls.num_writes::total             526643                       # Number of write requests responded to by this memory
system.mem_ctrls.bw_read::cpu.inst           32558724                       # Total read bandwidth from this memory (bytes/s)
system.mem_ctrls.bw_read::cpu.data           59947850                       # Total read bandwidth from this memory (bytes/s)
system.mem_ctrls.bw_read::tsunami.ide            1317                       # Total read bandwidth from this memory (bytes/s)
system.mem_ctrls.bw_read::total              92507891                       # Total read bandwidth from this memory (bytes/s)
system.mem_ctrls.bw_inst_read::cpu.inst      32558724                       # Instruction read bandwidth from this memory (bytes/s)
system.mem_ctrls.bw_inst_read::total         32558724                       # Instruction read bandwidth from this memory (bytes/s)
system.mem_ctrls.bw_write::writebacks        10085117                       # Write bandwidth from this memory (bytes/s)
system.mem_ctrls.bw_write::tsunami.ide         925247                       # Write bandwidth from this memory (bytes/s)
system.mem_ctrls.bw_write::total             11010363                       # Write bandwidth from this memory (bytes/s)
system.mem_ctrls.bw_total::writebacks        10085117                       # Total bandwidth to/from this memory (bytes/s)
system.mem_ctrls.bw_total::cpu.inst          32558724                       # Total bandwidth to/from this memory (bytes/s)
system.mem_ctrls.bw_total::cpu.data          59947850                       # Total bandwidth to/from this memory (bytes/s)
system.mem_ctrls.bw_total::tsunami.ide         926564                       # Total bandwidth to/from this memory (bytes/s)
system.mem_ctrls.bw_total::total            103518255                       # Total bandwidth to/from this memory (bytes/s)
system.mem_ctrls.readReqs                     4424798                       # Number of read requests accepted
system.mem_ctrls.writeReqs                     526643                       # Number of write requests accepted
system.mem_ctrls.readBursts                   4424798                       # Number of DRAM read bursts, including those serviced by the write queue
system.mem_ctrls.writeBursts                   526643                       # Number of DRAM write bursts, including those merged in the write queue
system.mem_ctrls.bytesReadDRAM              280751424                       # Total number of bytes read from DRAM
system.mem_ctrls.bytesReadWrQ                 2435648                       # Total number of bytes read from write queue
system.mem_ctrls.bytesWritten                33366272                       # Total number of bytes written to DRAM
system.mem_ctrls.bytesReadSys               283187072                       # Total read bytes from the system interface side
system.mem_ctrls.bytesWrittenSys             33705152                       # Total written bytes from the system interface side
system.mem_ctrls.servicedByWrQ                  38057                       # Number of DRAM read bursts serviced by the write queue
system.mem_ctrls.mergedWrBursts                  5272                       # Number of DRAM write bursts merged with an existing one
system.mem_ctrls.neitherReadNorWriteReqs          380                       # Number of requests that are neither read nor write
system.mem_ctrls.perBankRdBursts::0            323233                       # Per bank write bursts
system.mem_ctrls.perBankRdBursts::1            283020                       # Per bank write bursts
system.mem_ctrls.perBankRdBursts::2            195311                       # Per bank write bursts
system.mem_ctrls.perBankRdBursts::3            268925                       # Per bank write bursts
system.mem_ctrls.perBankRdBursts::4            235232                       # Per bank write bursts
system.mem_ctrls.perBankRdBursts::5            272359                       # Per bank write bursts
system.mem_ctrls.perBankRdBursts::6            211763                       # Per bank write bursts
system.mem_ctrls.perBankRdBursts::7            183439                       # Per bank write bursts
system.mem_ctrls.perBankRdBursts::8            324881                       # Per bank write bursts
system.mem_ctrls.perBankRdBursts::9            266074                       # Per bank write bursts
system.mem_ctrls.perBankRdBursts::10           322104                       # Per bank write bursts
system.mem_ctrls.perBankRdBursts::11           330066                       # Per bank write bursts
system.mem_ctrls.perBankRdBursts::12           342779                       # Per bank write bursts
system.mem_ctrls.perBankRdBursts::13           361061                       # Per bank write bursts
system.mem_ctrls.perBankRdBursts::14           235179                       # Per bank write bursts
system.mem_ctrls.perBankRdBursts::15           231315                       # Per bank write bursts
system.mem_ctrls.perBankWrBursts::0             22109                       # Per bank write bursts
system.mem_ctrls.perBankWrBursts::1             43234                       # Per bank write bursts
system.mem_ctrls.perBankWrBursts::2             23597                       # Per bank write bursts
system.mem_ctrls.perBankWrBursts::3             58550                       # Per bank write bursts
system.mem_ctrls.perBankWrBursts::4             18781                       # Per bank write bursts
system.mem_ctrls.perBankWrBursts::5             18308                       # Per bank write bursts
system.mem_ctrls.perBankWrBursts::6             20303                       # Per bank write bursts
system.mem_ctrls.perBankWrBursts::7             30499                       # Per bank write bursts
system.mem_ctrls.perBankWrBursts::8             30653                       # Per bank write bursts
system.mem_ctrls.perBankWrBursts::9             28380                       # Per bank write bursts
system.mem_ctrls.perBankWrBursts::10            29216                       # Per bank write bursts
system.mem_ctrls.perBankWrBursts::11            58530                       # Per bank write bursts
system.mem_ctrls.perBankWrBursts::12            44618                       # Per bank write bursts
system.mem_ctrls.perBankWrBursts::13            41982                       # Per bank write bursts
system.mem_ctrls.perBankWrBursts::14            23216                       # Per bank write bursts
system.mem_ctrls.perBankWrBursts::15            29372                       # Per bank write bursts
system.mem_ctrls.numRdRetry                         0                       # Number of times read queue was full causing retry
system.mem_ctrls.numWrRetry                        36                       # Number of times write queue was full causing retry
system.mem_ctrls.totGap                  3061220540000                       # Total gap between requests
system.mem_ctrls.readPktSize::0                     0                       # Read request sizes (log2)
system.mem_ctrls.readPktSize::1                     0                       # Read request sizes (log2)
system.mem_ctrls.readPktSize::2                     0                       # Read request sizes (log2)
system.mem_ctrls.readPktSize::3                     0                       # Read request sizes (log2)
system.mem_ctrls.readPktSize::4                     0                       # Read request sizes (log2)
system.mem_ctrls.readPktSize::5                     0                       # Read request sizes (log2)
system.mem_ctrls.readPktSize::6               4424798                       # Read request sizes (log2)
system.mem_ctrls.writePktSize::0                    0                       # Write request sizes (log2)
system.mem_ctrls.writePktSize::1                    0                       # Write request sizes (log2)
system.mem_ctrls.writePktSize::2                    0                       # Write request sizes (log2)
system.mem_ctrls.writePktSize::3                    0                       # Write request sizes (log2)
system.mem_ctrls.writePktSize::4                    0                       # Write request sizes (log2)
system.mem_ctrls.writePktSize::5                    0                       # Write request sizes (log2)
system.mem_ctrls.writePktSize::6               526643                       # Write request sizes (log2)
system.mem_ctrls.rdQLenPdf::0                 3953396                       # What read queue length does an incoming req see
system.mem_ctrls.rdQLenPdf::1                  393431                       # What read queue length does an incoming req see
system.mem_ctrls.rdQLenPdf::2                   33810                       # What read queue length does an incoming req see
system.mem_ctrls.rdQLenPdf::3                    5795                       # What read queue length does an incoming req see
system.mem_ctrls.rdQLenPdf::4                     273                       # What read queue length does an incoming req see
system.mem_ctrls.rdQLenPdf::5                      11                       # What read queue length does an incoming req see
system.mem_ctrls.rdQLenPdf::6                       5                       # What read queue length does an incoming req see
system.mem_ctrls.rdQLenPdf::7                       4                       # What read queue length does an incoming req see
system.mem_ctrls.rdQLenPdf::8                       4                       # What read queue length does an incoming req see
system.mem_ctrls.rdQLenPdf::9                       2                       # What read queue length does an incoming req see
system.mem_ctrls.rdQLenPdf::10                      1                       # What read queue length does an incoming req see
system.mem_ctrls.rdQLenPdf::11                      1                       # What read queue length does an incoming req see
system.mem_ctrls.rdQLenPdf::12                      1                       # What read queue length does an incoming req see
system.mem_ctrls.rdQLenPdf::13                      1                       # What read queue length does an incoming req see
system.mem_ctrls.rdQLenPdf::14                      1                       # What read queue length does an incoming req see
system.mem_ctrls.rdQLenPdf::15                      1                       # What read queue length does an incoming req see
system.mem_ctrls.rdQLenPdf::16                      1                       # What read queue length does an incoming req see
system.mem_ctrls.rdQLenPdf::17                      1                       # What read queue length does an incoming req see
system.mem_ctrls.rdQLenPdf::18                      1                       # What read queue length does an incoming req see
system.mem_ctrls.rdQLenPdf::19                      1                       # What read queue length does an incoming req see
system.mem_ctrls.rdQLenPdf::20                      0                       # What read queue length does an incoming req see
system.mem_ctrls.rdQLenPdf::21                      0                       # What read queue length does an incoming req see
system.mem_ctrls.rdQLenPdf::22                      0                       # What read queue length does an incoming req see
system.mem_ctrls.rdQLenPdf::23                      0                       # What read queue length does an incoming req see
system.mem_ctrls.rdQLenPdf::24                      0                       # What read queue length does an incoming req see
system.mem_ctrls.rdQLenPdf::25                      0                       # What read queue length does an incoming req see
system.mem_ctrls.rdQLenPdf::26                      0                       # What read queue length does an incoming req see
system.mem_ctrls.rdQLenPdf::27                      0                       # What read queue length does an incoming req see
system.mem_ctrls.rdQLenPdf::28                      0                       # What read queue length does an incoming req see
system.mem_ctrls.rdQLenPdf::29                      0                       # What read queue length does an incoming req see
system.mem_ctrls.rdQLenPdf::30                      0                       # What read queue length does an incoming req see
system.mem_ctrls.rdQLenPdf::31                      0                       # What read queue length does an incoming req see
system.mem_ctrls.wrQLenPdf::0                       1                       # What write queue length does an incoming req see
system.mem_ctrls.wrQLenPdf::1                       1                       # What write queue length does an incoming req see
system.mem_ctrls.wrQLenPdf::2                       1                       # What write queue length does an incoming req see
system.mem_ctrls.wrQLenPdf::3                       1                       # What write queue length does an incoming req see
system.mem_ctrls.wrQLenPdf::4                       1                       # What write queue length does an incoming req see
system.mem_ctrls.wrQLenPdf::5                       1                       # What write queue length does an incoming req see
system.mem_ctrls.wrQLenPdf::6                       1                       # What write queue length does an incoming req see
system.mem_ctrls.wrQLenPdf::7                       1                       # What write queue length does an incoming req see
system.mem_ctrls.wrQLenPdf::8                       1                       # What write queue length does an incoming req see
system.mem_ctrls.wrQLenPdf::9                       1                       # What write queue length does an incoming req see
system.mem_ctrls.wrQLenPdf::10                      1                       # What write queue length does an incoming req see
system.mem_ctrls.wrQLenPdf::11                      1                       # What write queue length does an incoming req see
system.mem_ctrls.wrQLenPdf::12                      1                       # What write queue length does an incoming req see
system.mem_ctrls.wrQLenPdf::13                      1                       # What write queue length does an incoming req see
system.mem_ctrls.wrQLenPdf::14                      1                       # What write queue length does an incoming req see
system.mem_ctrls.wrQLenPdf::15                  11423                       # What write queue length does an incoming req see
system.mem_ctrls.wrQLenPdf::16                  12547                       # What write queue length does an incoming req see
system.mem_ctrls.wrQLenPdf::17                  26029                       # What write queue length does an incoming req see
system.mem_ctrls.wrQLenPdf::18                  29492                       # What write queue length does an incoming req see
system.mem_ctrls.wrQLenPdf::19                  29334                       # What write queue length does an incoming req see
system.mem_ctrls.wrQLenPdf::20                  29689                       # What write queue length does an incoming req see
system.mem_ctrls.wrQLenPdf::21                  29832                       # What write queue length does an incoming req see
system.mem_ctrls.wrQLenPdf::22                  30524                       # What write queue length does an incoming req see
system.mem_ctrls.wrQLenPdf::23                  30911                       # What write queue length does an incoming req see
system.mem_ctrls.wrQLenPdf::24                  31705                       # What write queue length does an incoming req see
system.mem_ctrls.wrQLenPdf::25                  31603                       # What write queue length does an incoming req see
system.mem_ctrls.wrQLenPdf::26                  31373                       # What write queue length does an incoming req see
system.mem_ctrls.wrQLenPdf::27                  31247                       # What write queue length does an incoming req see
system.mem_ctrls.wrQLenPdf::28                  32249                       # What write queue length does an incoming req see
system.mem_ctrls.wrQLenPdf::29                  31229                       # What write queue length does an incoming req see
system.mem_ctrls.wrQLenPdf::30                  31195                       # What write queue length does an incoming req see
system.mem_ctrls.wrQLenPdf::31                  31033                       # What write queue length does an incoming req see
system.mem_ctrls.wrQLenPdf::32                  31084                       # What write queue length does an incoming req see
system.mem_ctrls.wrQLenPdf::33                   1058                       # What write queue length does an incoming req see
system.mem_ctrls.wrQLenPdf::34                    802                       # What write queue length does an incoming req see
system.mem_ctrls.wrQLenPdf::35                    622                       # What write queue length does an incoming req see
system.mem_ctrls.wrQLenPdf::36                    498                       # What write queue length does an incoming req see
system.mem_ctrls.wrQLenPdf::37                    412                       # What write queue length does an incoming req see
system.mem_ctrls.wrQLenPdf::38                    337                       # What write queue length does an incoming req see
system.mem_ctrls.wrQLenPdf::39                    338                       # What write queue length does an incoming req see
system.mem_ctrls.wrQLenPdf::40                    338                       # What write queue length does an incoming req see
system.mem_ctrls.wrQLenPdf::41                    326                       # What write queue length does an incoming req see
system.mem_ctrls.wrQLenPdf::42                    307                       # What write queue length does an incoming req see
system.mem_ctrls.wrQLenPdf::43                    290                       # What write queue length does an incoming req see
system.mem_ctrls.wrQLenPdf::44                    262                       # What write queue length does an incoming req see
system.mem_ctrls.wrQLenPdf::45                    257                       # What write queue length does an incoming req see
system.mem_ctrls.wrQLenPdf::46                    242                       # What write queue length does an incoming req see
system.mem_ctrls.wrQLenPdf::47                    231                       # What write queue length does an incoming req see
system.mem_ctrls.wrQLenPdf::48                    230                       # What write queue length does an incoming req see
system.mem_ctrls.wrQLenPdf::49                    222                       # What write queue length does an incoming req see
system.mem_ctrls.wrQLenPdf::50                    222                       # What write queue length does an incoming req see
system.mem_ctrls.wrQLenPdf::51                    181                       # What write queue length does an incoming req see
system.mem_ctrls.wrQLenPdf::52                    172                       # What write queue length does an incoming req see
system.mem_ctrls.wrQLenPdf::53                    150                       # What write queue length does an incoming req see
system.mem_ctrls.wrQLenPdf::54                    152                       # What write queue length does an incoming req see
system.mem_ctrls.wrQLenPdf::55                    150                       # What write queue length does an incoming req see
system.mem_ctrls.wrQLenPdf::56                    152                       # What write queue length does an incoming req see
system.mem_ctrls.wrQLenPdf::57                    168                       # What write queue length does an incoming req see
system.mem_ctrls.wrQLenPdf::58                    155                       # What write queue length does an incoming req see
system.mem_ctrls.wrQLenPdf::59                    150                       # What write queue length does an incoming req see
system.mem_ctrls.wrQLenPdf::60                    131                       # What write queue length does an incoming req see
system.mem_ctrls.wrQLenPdf::61                    120                       # What write queue length does an incoming req see
system.mem_ctrls.wrQLenPdf::62                     86                       # What write queue length does an incoming req see
system.mem_ctrls.wrQLenPdf::63                     96                       # What write queue length does an incoming req see
system.mem_ctrls.bytesPerActivate::samples      1234736                       # Bytes accessed per row activation
system.mem_ctrls.bytesPerActivate::mean    254.400280                       # Bytes accessed per row activation
system.mem_ctrls.bytesPerActivate::gmean   152.459262                       # Bytes accessed per row activation
system.mem_ctrls.bytesPerActivate::stdev   293.296260                       # Bytes accessed per row activation
system.mem_ctrls.bytesPerActivate::0-127       533821     43.23%     43.23% # Bytes accessed per row activation
system.mem_ctrls.bytesPerActivate::128-255       327556     26.53%     69.76% # Bytes accessed per row activation
system.mem_ctrls.bytesPerActivate::256-383       104405      8.46%     78.22% # Bytes accessed per row activation
system.mem_ctrls.bytesPerActivate::384-511        60225      4.88%     83.10% # Bytes accessed per row activation
system.mem_ctrls.bytesPerActivate::512-639        39984      3.24%     86.33% # Bytes accessed per row activation
system.mem_ctrls.bytesPerActivate::640-767        36270      2.94%     89.27% # Bytes accessed per row activation
system.mem_ctrls.bytesPerActivate::768-895        16617      1.35%     90.62% # Bytes accessed per row activation
system.mem_ctrls.bytesPerActivate::896-1023        11839      0.96%     91.58% # Bytes accessed per row activation
system.mem_ctrls.bytesPerActivate::1024-1151       104019      8.42%    100.00% # Bytes accessed per row activation
system.mem_ctrls.bytesPerActivate::total      1234736                       # Bytes accessed per row activation
system.mem_ctrls.rdPerTurnAround::samples        30064                       # Reads before turning the bus around for writes
system.mem_ctrls.rdPerTurnAround::mean     145.912054                       # Reads before turning the bus around for writes
system.mem_ctrls.rdPerTurnAround::stdev   5953.963863                       # Reads before turning the bus around for writes
system.mem_ctrls.rdPerTurnAround::0-32767        30063    100.00%    100.00% # Reads before turning the bus around for writes
system.mem_ctrls.rdPerTurnAround::1.01581e+06-1.04858e+06            1      0.00%    100.00% # Reads before turning the bus around for writes
system.mem_ctrls.rdPerTurnAround::total         30064                       # Reads before turning the bus around for writes
system.mem_ctrls.wrPerTurnAround::samples        30064                       # Writes before turning the bus around for reads
system.mem_ctrls.wrPerTurnAround::mean      17.341272                       # Writes before turning the bus around for reads
system.mem_ctrls.wrPerTurnAround::gmean     17.112564                       # Writes before turning the bus around for reads
system.mem_ctrls.wrPerTurnAround::stdev      4.474859                       # Writes before turning the bus around for reads
system.mem_ctrls.wrPerTurnAround::16-17         17616     58.59%     58.59% # Writes before turning the bus around for reads
system.mem_ctrls.wrPerTurnAround::18-19         11491     38.22%     96.82% # Writes before turning the bus around for reads
system.mem_ctrls.wrPerTurnAround::20-21           326      1.08%     97.90% # Writes before turning the bus around for reads
system.mem_ctrls.wrPerTurnAround::22-23            83      0.28%     98.18% # Writes before turning the bus around for reads
system.mem_ctrls.wrPerTurnAround::24-25            62      0.21%     98.38% # Writes before turning the bus around for reads
system.mem_ctrls.wrPerTurnAround::26-27            80      0.27%     98.65% # Writes before turning the bus around for reads
system.mem_ctrls.wrPerTurnAround::28-29            65      0.22%     98.87% # Writes before turning the bus around for reads
system.mem_ctrls.wrPerTurnAround::30-31            84      0.28%     99.15% # Writes before turning the bus around for reads
system.mem_ctrls.wrPerTurnAround::32-33            45      0.15%     99.29% # Writes before turning the bus around for reads
system.mem_ctrls.wrPerTurnAround::34-35            25      0.08%     99.38% # Writes before turning the bus around for reads
system.mem_ctrls.wrPerTurnAround::36-37            22      0.07%     99.45% # Writes before turning the bus around for reads
system.mem_ctrls.wrPerTurnAround::38-39             5      0.02%     99.47% # Writes before turning the bus around for reads
system.mem_ctrls.wrPerTurnAround::40-41            11      0.04%     99.50% # Writes before turning the bus around for reads
system.mem_ctrls.wrPerTurnAround::42-43            10      0.03%     99.54% # Writes before turning the bus around for reads
system.mem_ctrls.wrPerTurnAround::44-45            14      0.05%     99.58% # Writes before turning the bus around for reads
system.mem_ctrls.wrPerTurnAround::46-47            10      0.03%     99.62% # Writes before turning the bus around for reads
system.mem_ctrls.wrPerTurnAround::48-49             7      0.02%     99.64% # Writes before turning the bus around for reads
system.mem_ctrls.wrPerTurnAround::50-51             3      0.01%     99.65% # Writes before turning the bus around for reads
system.mem_ctrls.wrPerTurnAround::52-53             1      0.00%     99.65% # Writes before turning the bus around for reads
system.mem_ctrls.wrPerTurnAround::54-55             3      0.01%     99.66% # Writes before turning the bus around for reads
system.mem_ctrls.wrPerTurnAround::56-57             8      0.03%     99.69% # Writes before turning the bus around for reads
system.mem_ctrls.wrPerTurnAround::58-59             1      0.00%     99.69% # Writes before turning the bus around for reads
system.mem_ctrls.wrPerTurnAround::60-61             3      0.01%     99.70% # Writes before turning the bus around for reads
system.mem_ctrls.wrPerTurnAround::62-63             5      0.02%     99.72% # Writes before turning the bus around for reads
system.mem_ctrls.wrPerTurnAround::64-65             7      0.02%     99.74% # Writes before turning the bus around for reads
system.mem_ctrls.wrPerTurnAround::66-67             4      0.01%     99.76% # Writes before turning the bus around for reads
system.mem_ctrls.wrPerTurnAround::68-69             3      0.01%     99.77% # Writes before turning the bus around for reads
system.mem_ctrls.wrPerTurnAround::70-71             2      0.01%     99.77% # Writes before turning the bus around for reads
system.mem_ctrls.wrPerTurnAround::72-73             6      0.02%     99.79% # Writes before turning the bus around for reads
system.mem_ctrls.wrPerTurnAround::74-75             1      0.00%     99.80% # Writes before turning the bus around for reads
system.mem_ctrls.wrPerTurnAround::76-77             4      0.01%     99.81% # Writes before turning the bus around for reads
system.mem_ctrls.wrPerTurnAround::78-79             5      0.02%     99.83% # Writes before turning the bus around for reads
system.mem_ctrls.wrPerTurnAround::80-81             3      0.01%     99.84% # Writes before turning the bus around for reads
system.mem_ctrls.wrPerTurnAround::82-83             6      0.02%     99.86% # Writes before turning the bus around for reads
system.mem_ctrls.wrPerTurnAround::84-85             6      0.02%     99.88% # Writes before turning the bus around for reads
system.mem_ctrls.wrPerTurnAround::86-87             2      0.01%     99.88% # Writes before turning the bus around for reads
system.mem_ctrls.wrPerTurnAround::90-91             1      0.00%     99.89% # Writes before turning the bus around for reads
system.mem_ctrls.wrPerTurnAround::92-93             5      0.02%     99.90% # Writes before turning the bus around for reads
system.mem_ctrls.wrPerTurnAround::94-95             3      0.01%     99.91% # Writes before turning the bus around for reads
system.mem_ctrls.wrPerTurnAround::96-97             8      0.03%     99.94% # Writes before turning the bus around for reads
system.mem_ctrls.wrPerTurnAround::98-99             1      0.00%     99.94% # Writes before turning the bus around for reads
system.mem_ctrls.wrPerTurnAround::100-101            2      0.01%     99.95% # Writes before turning the bus around for reads
system.mem_ctrls.wrPerTurnAround::102-103            2      0.01%     99.96% # Writes before turning the bus around for reads
system.mem_ctrls.wrPerTurnAround::106-107            3      0.01%     99.97% # Writes before turning the bus around for reads
system.mem_ctrls.wrPerTurnAround::108-109            4      0.01%     99.98% # Writes before turning the bus around for reads
system.mem_ctrls.wrPerTurnAround::112-113            1      0.00%     99.98% # Writes before turning the bus around for reads
system.mem_ctrls.wrPerTurnAround::114-115            2      0.01%     99.99% # Writes before turning the bus around for reads
system.mem_ctrls.wrPerTurnAround::118-119            1      0.00%     99.99% # Writes before turning the bus around for reads
system.mem_ctrls.wrPerTurnAround::120-121            1      0.00%    100.00% # Writes before turning the bus around for reads
system.mem_ctrls.wrPerTurnAround::124-125            1      0.00%    100.00% # Writes before turning the bus around for reads
system.mem_ctrls.wrPerTurnAround::total         30064                       # Writes before turning the bus around for reads
system.mem_ctrls.totQLat                  40444757000                       # Total ticks spent queuing
system.mem_ctrls.totMemAccLat            122696150750                       # Total ticks spent from burst creation until serviced by the DRAM
system.mem_ctrls.totBusLat                21933705000                       # Total ticks spent in databus transfers
system.mem_ctrls.avgQLat                      9219.77                       # Average queueing delay per DRAM burst
system.mem_ctrls.avgBusLat                    5000.00                       # Average bus latency per DRAM burst
system.mem_ctrls.avgMemAccLat                27969.77                       # Average memory access latency per DRAM burst
system.mem_ctrls.avgRdBW                        91.71                       # Average DRAM read bandwidth in MiByte/s
system.mem_ctrls.avgWrBW                        10.90                       # Average achieved write bandwidth in MiByte/s
system.mem_ctrls.avgRdBWSys                     92.51                       # Average system read bandwidth in MiByte/s
system.mem_ctrls.avgWrBWSys                     11.01                       # Average system write bandwidth in MiByte/s
system.mem_ctrls.peakBW                      12800.00                       # Theoretical peak bandwidth in MiByte/s
system.mem_ctrls.busUtil                         0.80                       # Data bus utilization in percentage
system.mem_ctrls.busUtilRead                     0.72                       # Data bus utilization in percentage for reads
system.mem_ctrls.busUtilWrite                    0.09                       # Data bus utilization in percentage for writes
system.mem_ctrls.avgRdQLen                       1.02                       # Average read queue length when enqueuing
system.mem_ctrls.avgWrQLen                      24.83                       # Average write queue length when enqueuing
system.mem_ctrls.readRowHits                  3322164                       # Number of row buffer hits during reads
system.mem_ctrls.writeRowHits                  351187                       # Number of row buffer hits during writes
system.mem_ctrls.readRowHitRate                 75.73                       # Row buffer hit rate for reads
system.mem_ctrls.writeRowHitRate                67.36                       # Row buffer hit rate for writes
system.mem_ctrls.avgGap                     618248.41                       # Average gap between requests
system.mem_ctrls.pageHitRate                    74.84                       # Row buffer hit rate, read and write combined
system.mem_ctrls.memoryStateTime::IDLE   2186983530000                       # Time in different power states
system.mem_ctrls.memoryStateTime::REF    102220820000                       # Time in different power states
system.mem_ctrls.memoryStateTime::PRE_PDN            0                       # Time in different power states
system.mem_ctrls.memoryStateTime::ACT    772014615000                       # Time in different power states
system.mem_ctrls.memoryStateTime::ACT_PDN            0                       # Time in different power states
system.mem_ctrls.actEnergy::0              3790546200                       # Energy for activate commands per rank (pJ)
system.mem_ctrls.actEnergy::1              5544057960                       # Energy for activate commands per rank (pJ)
system.mem_ctrls.preEnergy::0              2068254375                       # Energy for precharge commands per rank (pJ)
system.mem_ctrls.preEnergy::1              3025031625                       # Energy for precharge commands per rank (pJ)
system.mem_ctrls.readEnergy::0            15391591800                       # Energy for read commands per rank (pJ)
system.mem_ctrls.readEnergy::1            18824925600                       # Energy for read commands per rank (pJ)
system.mem_ctrls.writeEnergy::0            1525268880                       # Energy for write commands per rank (pJ)
system.mem_ctrls.writeEnergy::1            1853066160                       # Energy for write commands per rank (pJ)
system.mem_ctrls.refreshEnergy::0        199943923920                       # Energy for refresh commands per rank (pJ)
system.mem_ctrls.refreshEnergy::1        199943923920                       # Energy for refresh commands per rank (pJ)
system.mem_ctrls.actBackEnergy::0        476659357875                       # Energy for active background per rank (pJ)
system.mem_ctrls.actBackEnergy::1        505640254050                       # Energy for active background per rank (pJ)
system.mem_ctrls.preBackEnergy::0        1418609127000                       # Energy for precharge background per rank (pJ)
system.mem_ctrls.preBackEnergy::1        1393187288250                       # Energy for precharge background per rank (pJ)
system.mem_ctrls.totalEnergy::0          2117988070050                       # Total energy per rank (pJ)
system.mem_ctrls.totalEnergy::1          2128018547565                       # Total energy per rank (pJ)
system.mem_ctrls.averagePower::0           691.877355                       # Core power per rank (mW)
system.mem_ctrls.averagePower::1           695.153983                       # Core power per rank (mW)
system.membus.trans_dist::ReadReq             4119686                       # Transaction distribution
system.membus.trans_dist::ReadResp            4119378                       # Transaction distribution
system.membus.trans_dist::WriteReq              10790                       # Transaction distribution
system.membus.trans_dist::WriteResp             10790                       # Transaction distribution
system.membus.trans_dist::Writeback            482387                       # Transaction distribution
system.membus.trans_dist::WriteInvalidateReq        44256                       # Transaction distribution
system.membus.trans_dist::WriteInvalidateResp        44256                       # Transaction distribution
system.membus.trans_dist::UpgradeReq              361                       # Transaction distribution
system.membus.trans_dist::SCUpgradeReq             19                       # Transaction distribution
system.membus.trans_dist::UpgradeResp             380                       # Transaction distribution
system.membus.trans_dist::ReadExReq            313315                       # Transaction distribution
system.membus.trans_dist::ReadExResp           313315                       # Transaction distribution
system.membus.trans_dist::BadAddressError          308                       # Transaction distribution
system.membus.pkt_count_system.iocache.mem_side::system.mem_ctrls.port        88785                       # Packet count per connected master and slave (bytes)
system.membus.pkt_count_system.iocache.mem_side::total        88785                       # Packet count per connected master and slave (bytes)
system.membus.pkt_count_system.cpu.icache.mem_side::system.mem_ctrls.port      3115147                       # Packet count per connected master and slave (bytes)
system.membus.pkt_count_system.cpu.icache.mem_side::total      3115147                       # Packet count per connected master and slave (bytes)
system.membus.pkt_count_system.cpu.dcache.mem_side::system.bridge.slave        36122                       # Packet count per connected master and slave (bytes)
system.membus.pkt_count_system.cpu.dcache.mem_side::system.mem_ctrls.port      6217947                       # Packet count per connected master and slave (bytes)
system.membus.pkt_count_system.cpu.dcache.mem_side::system.membus.badaddr_responder.pio          616                       # Packet count per connected master and slave (bytes)
system.membus.pkt_count_system.cpu.dcache.mem_side::total      6254685                       # Packet count per connected master and slave (bytes)
system.membus.pkt_count::total                9458617                       # Packet count per connected master and slave (bytes)
system.membus.pkt_size_system.iocache.mem_side::system.mem_ctrls.port      2836416                       # Cumulative packet size per connected master and slave (bytes)
system.membus.pkt_size_system.iocache.mem_side::total      2836416                       # Cumulative packet size per connected master and slave (bytes)
system.membus.pkt_size_system.cpu.icache.mem_side::system.mem_ctrls.port     99669440                       # Cumulative packet size per connected master and slave (bytes)
system.membus.pkt_size_system.cpu.icache.mem_side::total     99669440                       # Cumulative packet size per connected master and slave (bytes)
system.membus.pkt_size_system.cpu.dcache.mem_side::system.bridge.slave        50255                       # Cumulative packet size per connected master and slave (bytes)
system.membus.pkt_size_system.cpu.dcache.mem_side::system.mem_ctrls.port    214386368                       # Cumulative packet size per connected master and slave (bytes)
system.membus.pkt_size_system.cpu.dcache.mem_side::total    214436623                       # Cumulative packet size per connected master and slave (bytes)
system.membus.pkt_size::total               316942479                       # Cumulative packet size per connected master and slave (bytes)
system.membus.snoops                              624                       # Total snoops (count)
system.membus.snoop_fanout::samples           4952789                       # Request fanout histogram
system.membus.snoop_fanout::mean                    2                       # Request fanout histogram
system.membus.snoop_fanout::stdev                   0                       # Request fanout histogram
system.membus.snoop_fanout::underflows              0      0.00%      0.00% # Request fanout histogram
system.membus.snoop_fanout::0                       0      0.00%      0.00% # Request fanout histogram
system.membus.snoop_fanout::1                       0      0.00%      0.00% # Request fanout histogram
system.membus.snoop_fanout::2                 4952789    100.00%    100.00% # Request fanout histogram
system.membus.snoop_fanout::3                       0      0.00%    100.00% # Request fanout histogram
system.membus.snoop_fanout::overflows               0      0.00%    100.00% # Request fanout histogram
system.membus.snoop_fanout::min_value               2                       # Request fanout histogram
system.membus.snoop_fanout::max_value               2                       # Request fanout histogram
system.membus.snoop_fanout::total             4952789                       # Request fanout histogram
system.membus.reqLayer0.occupancy            28869981                       # Layer occupancy (ticks)
system.membus.reqLayer0.utilization               0.0                       # Layer utilization (%)
system.membus.reqLayer1.occupancy          9165643246                       # Layer occupancy (ticks)
system.membus.reqLayer1.utilization               0.3                       # Layer utilization (%)
system.membus.reqLayer2.occupancy              308000                       # Layer occupancy (ticks)
system.membus.reqLayer2.utilization               0.0                       # Layer utilization (%)
system.membus.respLayer1.occupancy           46237673                       # Layer occupancy (ticks)
system.membus.respLayer1.utilization              0.0                       # Layer utilization (%)
system.membus.respLayer2.occupancy        14556205504                       # Layer occupancy (ticks)
system.membus.respLayer2.utilization              0.5                       # Layer utilization (%)
system.membus.respLayer3.occupancy        26680616118                       # Layer occupancy (ticks)
system.membus.respLayer3.utilization              0.9                       # Layer utilization (%)
system.iocache.tags.replacements                44450                       # number of replacements
system.iocache.tags.tagsinuse                0.773906                       # Cycle average of tags in use
system.iocache.tags.total_refs                      0                       # Total number of references to valid blocks.
system.iocache.tags.sampled_refs                44450                       # Sample count of references to valid blocks.
system.iocache.tags.avg_refs                        0                       # Average number of references to valid blocks.
system.iocache.tags.warmup_cycle         2913152238000                       # Cycle when the warmup percentage was hit.
system.iocache.tags.occ_blocks::tsunami.ide     0.773906                       # Average occupied blocks per requestor
system.iocache.tags.occ_percent::tsunami.ide     0.048369                       # Average percentage of cache occupancy
system.iocache.tags.occ_percent::total       0.048369                       # Average percentage of cache occupancy
system.iocache.tags.occ_task_id_blocks::1023           16                       # Occupied blocks per task id
system.iocache.tags.age_task_id_blocks_1023::4           16                       # Occupied blocks per task id
system.iocache.tags.occ_task_id_percent::1023            1                       # Percentage of cache occupancy per task id
system.iocache.tags.tag_accesses               400266                       # Number of tag accesses
system.iocache.tags.data_accesses              400266                       # Number of data accesses
system.iocache.WriteInvalidateReq_hits::tsunami.ide        44256                       # number of WriteInvalidateReq hits
system.iocache.WriteInvalidateReq_hits::total        44256                       # number of WriteInvalidateReq hits
system.iocache.ReadReq_misses::tsunami.ide          210                       # number of ReadReq misses
system.iocache.ReadReq_misses::total              210                       # number of ReadReq misses
system.iocache.WriteInvalidateReq_misses::tsunami.ide            9                       # number of WriteInvalidateReq misses
system.iocache.WriteInvalidateReq_misses::total            9                       # number of WriteInvalidateReq misses
system.iocache.demand_misses::tsunami.ide          210                       # number of demand (read+write) misses
system.iocache.demand_misses::total               210                       # number of demand (read+write) misses
system.iocache.overall_misses::tsunami.ide          210                       # number of overall misses
system.iocache.overall_misses::total              210                       # number of overall misses
system.iocache.ReadReq_miss_latency::tsunami.ide     33632854                       # number of ReadReq miss cycles
system.iocache.ReadReq_miss_latency::total     33632854                       # number of ReadReq miss cycles
system.iocache.demand_miss_latency::tsunami.ide     33632854                       # number of demand (read+write) miss cycles
system.iocache.demand_miss_latency::total     33632854                       # number of demand (read+write) miss cycles
system.iocache.overall_miss_latency::tsunami.ide     33632854                       # number of overall miss cycles
system.iocache.overall_miss_latency::total     33632854                       # number of overall miss cycles
system.iocache.ReadReq_accesses::tsunami.ide          210                       # number of ReadReq accesses(hits+misses)
system.iocache.ReadReq_accesses::total            210                       # number of ReadReq accesses(hits+misses)
system.iocache.WriteInvalidateReq_accesses::tsunami.ide        44265                       # number of WriteInvalidateReq accesses(hits+misses)
system.iocache.WriteInvalidateReq_accesses::total        44265                       # number of WriteInvalidateReq accesses(hits+misses)
system.iocache.demand_accesses::tsunami.ide          210                       # number of demand (read+write) accesses
system.iocache.demand_accesses::total             210                       # number of demand (read+write) accesses
system.iocache.overall_accesses::tsunami.ide          210                       # number of overall (read+write) accesses
system.iocache.overall_accesses::total            210                       # number of overall (read+write) accesses
system.iocache.ReadReq_miss_rate::tsunami.ide            1                       # miss rate for ReadReq accesses
system.iocache.ReadReq_miss_rate::total             1                       # miss rate for ReadReq accesses
system.iocache.WriteInvalidateReq_miss_rate::tsunami.ide     0.000203                       # miss rate for WriteInvalidateReq accesses
system.iocache.WriteInvalidateReq_miss_rate::total     0.000203                       # miss rate for WriteInvalidateReq accesses
system.iocache.demand_miss_rate::tsunami.ide            1                       # miss rate for demand accesses
system.iocache.demand_miss_rate::total              1                       # miss rate for demand accesses
system.iocache.overall_miss_rate::tsunami.ide            1                       # miss rate for overall accesses
system.iocache.overall_miss_rate::total             1                       # miss rate for overall accesses
system.iocache.ReadReq_avg_miss_latency::tsunami.ide 160156.447619                       # average ReadReq miss latency
system.iocache.ReadReq_avg_miss_latency::total 160156.447619                       # average ReadReq miss latency
system.iocache.demand_avg_miss_latency::tsunami.ide 160156.447619                       # average overall miss latency
system.iocache.demand_avg_miss_latency::total 160156.447619                       # average overall miss latency
system.iocache.overall_avg_miss_latency::tsunami.ide 160156.447619                       # average overall miss latency
system.iocache.overall_avg_miss_latency::total 160156.447619                       # average overall miss latency
system.iocache.blocked_cycles::no_mshrs           428                       # number of cycles access was blocked
system.iocache.blocked_cycles::no_targets            0                       # number of cycles access was blocked
system.iocache.blocked::no_mshrs                   45                       # number of cycles access was blocked
system.iocache.blocked::no_targets                  0                       # number of cycles access was blocked
system.iocache.avg_blocked_cycles::no_mshrs     9.511111                       # average number of cycles each access was blocked
system.iocache.avg_blocked_cycles::no_targets          nan                       # average number of cycles each access was blocked
system.iocache.fast_writes                      44256                       # number of fast writes performed
system.iocache.cache_copies                         0                       # number of cache copies performed
system.iocache.ReadReq_mshr_misses::tsunami.ide          210                       # number of ReadReq MSHR misses
system.iocache.ReadReq_mshr_misses::total          210                       # number of ReadReq MSHR misses
system.iocache.WriteInvalidateReq_mshr_misses::tsunami.ide        44256                       # number of WriteInvalidateReq MSHR misses
system.iocache.WriteInvalidateReq_mshr_misses::total        44256                       # number of WriteInvalidateReq MSHR misses
system.iocache.demand_mshr_misses::tsunami.ide          210                       # number of demand (read+write) MSHR misses
system.iocache.demand_mshr_misses::total          210                       # number of demand (read+write) MSHR misses
system.iocache.overall_mshr_misses::tsunami.ide          210                       # number of overall MSHR misses
system.iocache.overall_mshr_misses::total          210                       # number of overall MSHR misses
system.iocache.ReadReq_mshr_miss_latency::tsunami.ide     22711854                       # number of ReadReq MSHR miss cycles
system.iocache.ReadReq_mshr_miss_latency::total     22711854                       # number of ReadReq MSHR miss cycles
system.iocache.WriteInvalidateReq_mshr_miss_latency::tsunami.ide   2857347293                       # number of WriteInvalidateReq MSHR miss cycles
system.iocache.WriteInvalidateReq_mshr_miss_latency::total   2857347293                       # number of WriteInvalidateReq MSHR miss cycles
system.iocache.demand_mshr_miss_latency::tsunami.ide     22711854                       # number of demand (read+write) MSHR miss cycles
system.iocache.demand_mshr_miss_latency::total     22711854                       # number of demand (read+write) MSHR miss cycles
system.iocache.overall_mshr_miss_latency::tsunami.ide     22711854                       # number of overall MSHR miss cycles
system.iocache.overall_mshr_miss_latency::total     22711854                       # number of overall MSHR miss cycles
system.iocache.ReadReq_mshr_miss_rate::tsunami.ide            1                       # mshr miss rate for ReadReq accesses
system.iocache.ReadReq_mshr_miss_rate::total            1                       # mshr miss rate for ReadReq accesses
system.iocache.WriteInvalidateReq_mshr_miss_rate::tsunami.ide     0.999797                       # mshr miss rate for WriteInvalidateReq accesses
system.iocache.WriteInvalidateReq_mshr_miss_rate::total     0.999797                       # mshr miss rate for WriteInvalidateReq accesses
system.iocache.demand_mshr_miss_rate::tsunami.ide            1                       # mshr miss rate for demand accesses
system.iocache.demand_mshr_miss_rate::total            1                       # mshr miss rate for demand accesses
system.iocache.overall_mshr_miss_rate::tsunami.ide            1                       # mshr miss rate for overall accesses
system.iocache.overall_mshr_miss_rate::total            1                       # mshr miss rate for overall accesses
system.iocache.ReadReq_avg_mshr_miss_latency::tsunami.ide 108151.685714                       # average ReadReq mshr miss latency
system.iocache.ReadReq_avg_mshr_miss_latency::total 108151.685714                       # average ReadReq mshr miss latency
system.iocache.WriteInvalidateReq_avg_mshr_miss_latency::tsunami.ide 64564.065731                       # average WriteInvalidateReq mshr miss latency
system.iocache.WriteInvalidateReq_avg_mshr_miss_latency::total 64564.065731                       # average WriteInvalidateReq mshr miss latency
system.iocache.demand_avg_mshr_miss_latency::tsunami.ide 108151.685714                       # average overall mshr miss latency
system.iocache.demand_avg_mshr_miss_latency::total 108151.685714                       # average overall mshr miss latency
system.iocache.overall_avg_mshr_miss_latency::tsunami.ide 108151.685714                       # average overall mshr miss latency
system.iocache.overall_avg_mshr_miss_latency::total 108151.685714                       # average overall mshr miss latency
system.iocache.no_allocate_misses                   0                       # Number of misses that were no-allocate
system.disk0.dma_read_full_pages                    0                       # Number of full page size DMA reads (not PRD).
system.disk0.dma_read_bytes                      4096                       # Number of bytes transfered via DMA reads (not PRD).
system.disk0.dma_read_txs                           1                       # Number of DMA read transactions (not PRD).
system.disk0.dma_write_full_pages                 326                       # Number of full page size DMA writes.
system.disk0.dma_write_bytes                  2824192                       # Number of bytes transfered via DMA writes.
system.disk0.dma_write_txs                        365                       # Number of DMA write transactions.
system.disk2.dma_read_full_pages                    0                       # Number of full page size DMA reads (not PRD).
system.disk2.dma_read_bytes                         0                       # Number of bytes transfered via DMA reads (not PRD).
system.disk2.dma_read_txs                           0                       # Number of DMA read transactions (not PRD).
system.disk2.dma_write_full_pages                   1                       # Number of full page size DMA writes.
system.disk2.dma_write_bytes                     8192                       # Number of bytes transfered via DMA writes.
system.disk2.dma_write_txs                          1                       # Number of DMA write transactions.
system.cpu.branchPred.lookups                28342172                       # Number of BP lookups
system.cpu.branchPred.condPredicted          24071017                       # Number of conditional branches predicted
system.cpu.branchPred.condIncorrect            643210                       # Number of conditional branches incorrect
system.cpu.branchPred.BTBLookups             19369367                       # Number of BTB lookups
system.cpu.branchPred.BTBHits                10955342                       # Number of BTB hits
system.cpu.branchPred.BTBCorrect                    0                       # Number of correct BTB predictions (this stat may not work properly.
system.cpu.branchPred.BTBHitPct             56.560145                       # BTB Hit Percentage
system.cpu.branchPred.usedRAS                 1734118                       # Number of times the RAS was used to get a target.
system.cpu.branchPred.RASInCorrect              37399                       # Number of incorrect RAS predictions.
system.cpu_voltage_domain.voltage                   1                       # Voltage in Volts
system.cpu_clk_domain.clock                     10000                       # Clock period in ticks
system.cpu.dtb.fetch_hits                           0                       # ITB hits
system.cpu.dtb.fetch_misses                         0                       # ITB misses
system.cpu.dtb.fetch_acv                            0                       # ITB acv
system.cpu.dtb.fetch_accesses                       0                       # ITB accesses
system.cpu.dtb.read_hits                     17398400                       # DTB read hits
system.cpu.dtb.read_misses                      83750                       # DTB read misses
system.cpu.dtb.read_acv                           239                       # DTB read access violations
system.cpu.dtb.read_accesses                  1117854                       # DTB read accesses
system.cpu.dtb.write_hits                     8792211                       # DTB write hits
system.cpu.dtb.write_misses                     15925                       # DTB write misses
system.cpu.dtb.write_acv                          495                       # DTB write access violations
system.cpu.dtb.write_accesses                  397738                       # DTB write accesses
system.cpu.dtb.data_hits                     26190611                       # DTB hits
system.cpu.dtb.data_misses                      99675                       # DTB misses
system.cpu.dtb.data_acv                           734                       # DTB access violations
system.cpu.dtb.data_accesses                  1515592                       # DTB accesses
system.cpu.itb.fetch_hits                     2136956                       # ITB hits
system.cpu.itb.fetch_misses                     30998                       # ITB misses
system.cpu.itb.fetch_acv                          874                       # ITB acv
system.cpu.itb.fetch_accesses                 2167954                       # ITB accesses
system.cpu.itb.read_hits                            0                       # DTB read hits
system.cpu.itb.read_misses                          0                       # DTB read misses
system.cpu.itb.read_acv                             0                       # DTB read access violations
system.cpu.itb.read_accesses                        0                       # DTB read accesses
system.cpu.itb.write_hits                           0                       # DTB write hits
system.cpu.itb.write_misses                         0                       # DTB write misses
system.cpu.itb.write_acv                            0                       # DTB write access violations
system.cpu.itb.write_accesses                       0                       # DTB write accesses
system.cpu.itb.data_hits                            0                       # DTB hits
system.cpu.itb.data_misses                          0                       # DTB misses
system.cpu.itb.data_acv                             0                       # DTB access violations
system.cpu.itb.data_accesses                        0                       # DTB accesses
system.cpu.numCycles                         86679159                       # number of cpu cycles simulated
system.cpu.numWorkItemsStarted                      0                       # number of work items this cpu started
system.cpu.numWorkItemsCompleted                    0                       # number of work items this cpu completed
system.cpu.fetch.icacheStallCycles           27847023                       # Number of cycles fetch is stalled on an Icache miss
system.cpu.fetch.Insts                      124317281                       # Number of instructions fetch has processed
system.cpu.fetch.Branches                    28342172                       # Number of branches that fetch encountered
system.cpu.fetch.predictedBranches           12689460                       # Number of branches that fetch has predicted taken
system.cpu.fetch.Cycles                      56399945                       # Number of cycles fetch has run and was not squashing or blocked
system.cpu.fetch.SquashCycles                 1887270                       # Number of cycles fetch has spent squashing
system.cpu.fetch.TlbCycles                       2657                       # Number of cycles fetch has spent waiting for tlb
system.cpu.fetch.MiscStallCycles                50693                       # Number of cycles fetch has spent waiting on interrupts, or bad addresses, or out of MSHRs
system.cpu.fetch.PendingTrapStallCycles        907559                       # Number of stall cycles due to pending traps
system.cpu.fetch.PendingQuiesceStallCycles       348210                       # Number of stall cycles due to pending quiesce instructions
system.cpu.fetch.CacheLines                  15860996                       # Number of cache lines fetched
system.cpu.fetch.IcacheSquashes                403745                       # Number of outstanding Icache misses that were squashed
system.cpu.fetch.ItlbSquashes                      18                       # Number of outstanding ITLB misses that were squashed
system.cpu.fetch.rateDist::samples           86499722                       # Number of instructions fetched each cycle (Total)
system.cpu.fetch.rateDist::mean              1.437199                       # Number of instructions fetched each cycle (Total)
system.cpu.fetch.rateDist::stdev             2.617707                       # Number of instructions fetched each cycle (Total)
system.cpu.fetch.rateDist::underflows               0      0.00%      0.00% # Number of instructions fetched each cycle (Total)
system.cpu.fetch.rateDist::0                 61006955     70.53%     70.53% # Number of instructions fetched each cycle (Total)
system.cpu.fetch.rateDist::1                  2585375      2.99%     73.52% # Number of instructions fetched each cycle (Total)
system.cpu.fetch.rateDist::2                  3386929      3.92%     77.43% # Number of instructions fetched each cycle (Total)
system.cpu.fetch.rateDist::3                  2721852      3.15%     80.58% # Number of instructions fetched each cycle (Total)
system.cpu.fetch.rateDist::4                  4952869      5.73%     86.31% # Number of instructions fetched each cycle (Total)
system.cpu.fetch.rateDist::5                  1047465      1.21%     87.52% # Number of instructions fetched each cycle (Total)
system.cpu.fetch.rateDist::6                  1942115      2.25%     89.76% # Number of instructions fetched each cycle (Total)
system.cpu.fetch.rateDist::7                   758295      0.88%     90.64% # Number of instructions fetched each cycle (Total)
system.cpu.fetch.rateDist::8                  8097867      9.36%    100.00% # Number of instructions fetched each cycle (Total)
system.cpu.fetch.rateDist::overflows                0      0.00%    100.00% # Number of instructions fetched each cycle (Total)
system.cpu.fetch.rateDist::min_value                0                       # Number of instructions fetched each cycle (Total)
system.cpu.fetch.rateDist::max_value                8                       # Number of instructions fetched each cycle (Total)
system.cpu.fetch.rateDist::total             86499722                       # Number of instructions fetched each cycle (Total)
system.cpu.fetch.branchRate                  0.326978                       # Number of branch fetches per cycle
system.cpu.fetch.rate                        1.434223                       # Number of inst fetches per cycle
system.cpu.decode.IdleCycles                 23211188                       # Number of cycles decode is idle
system.cpu.decode.BlockedCycles              41041405                       # Number of cycles decode is blocked
system.cpu.decode.RunCycles                  18918724                       # Number of cycles decode is running
system.cpu.decode.UnblockCycles               2469416                       # Number of cycles decode is unblocking
system.cpu.decode.SquashCycles                 858988                       # Number of cycles decode is squashing
system.cpu.decode.BranchResolved               944453                       # Number of times decode resolved a branch
system.cpu.decode.BranchMispred                 87211                       # Number of times decode detected a branch misprediction
system.cpu.decode.DecodedInsts              111199620                       # Number of instructions handled by decode
system.cpu.decode.SquashedInsts                253421                       # Number of squashed instructions handled by decode
system.cpu.rename.SquashCycles                 858988                       # Number of cycles rename is squashing
system.cpu.rename.IdleCycles                 24461944                       # Number of cycles rename is idle
system.cpu.rename.BlockCycles                12201661                       # Number of cycles rename is blocking
system.cpu.rename.serializeStallCycles       21936698                       # count of cycles rename stalled for serializing inst
system.cpu.rename.RunCycles                  20099589                       # Number of cycles rename is running
system.cpu.rename.UnblockCycles               6940840                       # Number of cycles rename is unblocking
system.cpu.rename.RenamedInsts              107635234                       # Number of instructions processed by rename
system.cpu.rename.ROBFullEvents                271105                       # Number of times rename has blocked due to ROB full
system.cpu.rename.IQFullEvents                4049257                       # Number of times rename has blocked due to IQ full
system.cpu.rename.LQFullEvents                 468800                       # Number of times rename has blocked due to LQ full
system.cpu.rename.SQFullEvents                 208518                       # Number of times rename has blocked due to SQ full
system.cpu.rename.RenamedOperands            77378182                       # Number of destination operands rename has renamed
system.cpu.rename.RenameLookups             138235273                       # Number of register rename lookups that rename has made
system.cpu.rename.int_rename_lookups        138036889                       # Number of integer rename lookups
system.cpu.rename.fp_rename_lookups            183737                       # Number of floating rename lookups
system.cpu.rename.CommittedMaps              68116147                       # Number of HB maps that are committed
system.cpu.rename.UndoneMaps                  9262027                       # Number of HB maps that are undone due to squashing
system.cpu.rename.serializingInsts            2038147                       # count of serializing insts renamed
system.cpu.rename.tempSerializingInsts         332865                       # count of temporary serializing insts renamed
system.cpu.rename.skidInsts                  16509067                       # count of insts added to the skid buffer
system.cpu.memDep0.insertedLoads             18296818                       # Number of loads inserted to the mem dependence unit.
system.cpu.memDep0.insertedStores             9288654                       # Number of stores inserted to the mem dependence unit.
system.cpu.memDep0.conflictingLoads           2723548                       # Number of conflicting loads.
system.cpu.memDep0.conflictingStores          1820182                       # Number of conflicting stores.
system.cpu.iq.iqInstsAdded                  100753935                       # Number of instructions added to the IQ (excludes non-spec)
system.cpu.iq.iqNonSpecInstsAdded             2777656                       # Number of non-speculative instructions added to the IQ
system.cpu.iq.iqInstsIssued                  98226240                       # Number of instructions issued
system.cpu.iq.iqSquashedInstsIssued             87704                       # Number of squashed instructions issued
system.cpu.iq.iqSquashedInstsExamined        11422725                       # Number of squashed instructions iterated over during squash; mainly for profiling
system.cpu.iq.iqSquashedOperandsExamined      5791213                       # Number of squashed operands that are examined and possibly removed from graph
system.cpu.iq.iqSquashedNonSpecRemoved        1777442                       # Number of squashed non-spec instructions that were removed
system.cpu.iq.issued_per_cycle::samples      86499722                       # Number of insts issued each cycle
system.cpu.iq.issued_per_cycle::mean         1.135567                       # Number of insts issued each cycle
system.cpu.iq.issued_per_cycle::stdev        1.661951                       # Number of insts issued each cycle
system.cpu.iq.issued_per_cycle::underflows            0      0.00%      0.00% # Number of insts issued each cycle
system.cpu.iq.issued_per_cycle::0            46141074     53.34%     53.34% # Number of insts issued each cycle
system.cpu.iq.issued_per_cycle::1            17105955     19.78%     73.12% # Number of insts issued each cycle
system.cpu.iq.issued_per_cycle::2             7534857      8.71%     81.83% # Number of insts issued each cycle
system.cpu.iq.issued_per_cycle::3             5903288      6.82%     88.65% # Number of insts issued each cycle
system.cpu.iq.issued_per_cycle::4             4761789      5.50%     94.16% # Number of insts issued each cycle
system.cpu.iq.issued_per_cycle::5             2382982      2.75%     96.91% # Number of insts issued each cycle
system.cpu.iq.issued_per_cycle::6             1575731      1.82%     98.74% # Number of insts issued each cycle
system.cpu.iq.issued_per_cycle::7              828113      0.96%     99.69% # Number of insts issued each cycle
system.cpu.iq.issued_per_cycle::8              265933      0.31%    100.00% # Number of insts issued each cycle
system.cpu.iq.issued_per_cycle::overflows            0      0.00%    100.00% # Number of insts issued each cycle
system.cpu.iq.issued_per_cycle::min_value            0                       # Number of insts issued each cycle
system.cpu.iq.issued_per_cycle::max_value            8                       # Number of insts issued each cycle
system.cpu.iq.issued_per_cycle::total        86499722                       # Number of insts issued each cycle
system.cpu.iq.fu_full::No_OpClass                   0      0.00%      0.00% # attempts to use FU when none available
system.cpu.iq.fu_full::IntAlu                  435900     24.86%     24.86% # attempts to use FU when none available
system.cpu.iq.fu_full::IntMult                      1      0.00%     24.86% # attempts to use FU when none available
system.cpu.iq.fu_full::IntDiv                       0      0.00%     24.86% # attempts to use FU when none available
system.cpu.iq.fu_full::FloatAdd                     0      0.00%     24.86% # attempts to use FU when none available
system.cpu.iq.fu_full::FloatCmp                     0      0.00%     24.86% # attempts to use FU when none available
system.cpu.iq.fu_full::FloatCvt                     0      0.00%     24.86% # attempts to use FU when none available
system.cpu.iq.fu_full::FloatMult                    0      0.00%     24.86% # attempts to use FU when none available
system.cpu.iq.fu_full::FloatDiv                     0      0.00%     24.86% # attempts to use FU when none available
system.cpu.iq.fu_full::FloatSqrt                    0      0.00%     24.86% # attempts to use FU when none available
system.cpu.iq.fu_full::SimdAdd                      0      0.00%     24.86% # attempts to use FU when none available
system.cpu.iq.fu_full::SimdAddAcc                   0      0.00%     24.86% # attempts to use FU when none available
system.cpu.iq.fu_full::SimdAlu                      0      0.00%     24.86% # attempts to use FU when none available
system.cpu.iq.fu_full::SimdCmp                      0      0.00%     24.86% # attempts to use FU when none available
system.cpu.iq.fu_full::SimdCvt                      0      0.00%     24.86% # attempts to use FU when none available
system.cpu.iq.fu_full::SimdMisc                     0      0.00%     24.86% # attempts to use FU when none available
system.cpu.iq.fu_full::SimdMult                     0      0.00%     24.86% # attempts to use FU when none available
system.cpu.iq.fu_full::SimdMultAcc                  0      0.00%     24.86% # attempts to use FU when none available
system.cpu.iq.fu_full::SimdShift                    0      0.00%     24.86% # attempts to use FU when none available
system.cpu.iq.fu_full::SimdShiftAcc                 0      0.00%     24.86% # attempts to use FU when none available
system.cpu.iq.fu_full::SimdSqrt                     0      0.00%     24.86% # attempts to use FU when none available
system.cpu.iq.fu_full::SimdFloatAdd                 0      0.00%     24.86% # attempts to use FU when none available
system.cpu.iq.fu_full::SimdFloatAlu                 0      0.00%     24.86% # attempts to use FU when none available
system.cpu.iq.fu_full::SimdFloatCmp                 0      0.00%     24.86% # attempts to use FU when none available
system.cpu.iq.fu_full::SimdFloatCvt                 0      0.00%     24.86% # attempts to use FU when none available
system.cpu.iq.fu_full::SimdFloatDiv                 0      0.00%     24.86% # attempts to use FU when none available
system.cpu.iq.fu_full::SimdFloatMisc                0      0.00%     24.86% # attempts to use FU when none available
system.cpu.iq.fu_full::SimdFloatMult                0      0.00%     24.86% # attempts to use FU when none available
system.cpu.iq.fu_full::SimdFloatMultAcc             0      0.00%     24.86% # attempts to use FU when none available
system.cpu.iq.fu_full::SimdFloatSqrt                0      0.00%     24.86% # attempts to use FU when none available
system.cpu.iq.fu_full::MemRead                 794221     45.30%     70.16% # attempts to use FU when none available
system.cpu.iq.fu_full::MemWrite                523148     29.84%    100.00% # attempts to use FU when none available
system.cpu.iq.fu_full::IprAccess                    0      0.00%    100.00% # attempts to use FU when none available
system.cpu.iq.fu_full::InstPrefetch                 0      0.00%    100.00% # attempts to use FU when none available
system.cpu.iq.FU_type_0::No_OpClass              8382      0.01%      0.01% # Type of FU issued
system.cpu.iq.FU_type_0::IntAlu              69755285     71.01%     71.02% # Type of FU issued
system.cpu.iq.FU_type_0::IntMult               164406      0.17%     71.19% # Type of FU issued
system.cpu.iq.FU_type_0::IntDiv                     0      0.00%     71.19% # Type of FU issued
system.cpu.iq.FU_type_0::FloatAdd               85830      0.09%     71.28% # Type of FU issued
system.cpu.iq.FU_type_0::FloatCmp                   0      0.00%     71.28% # Type of FU issued
system.cpu.iq.FU_type_0::FloatCvt                   0      0.00%     71.28% # Type of FU issued
system.cpu.iq.FU_type_0::FloatMult                  0      0.00%     71.28% # Type of FU issued
system.cpu.iq.FU_type_0::FloatDiv                4190      0.00%     71.28% # Type of FU issued
system.cpu.iq.FU_type_0::FloatSqrt                  0      0.00%     71.28% # Type of FU issued
system.cpu.iq.FU_type_0::SimdAdd                    0      0.00%     71.28% # Type of FU issued
system.cpu.iq.FU_type_0::SimdAddAcc                 0      0.00%     71.28% # Type of FU issued
system.cpu.iq.FU_type_0::SimdAlu                    0      0.00%     71.28% # Type of FU issued
system.cpu.iq.FU_type_0::SimdCmp                    0      0.00%     71.28% # Type of FU issued
system.cpu.iq.FU_type_0::SimdCvt                    0      0.00%     71.28% # Type of FU issued
system.cpu.iq.FU_type_0::SimdMisc                   0      0.00%     71.28% # Type of FU issued
system.cpu.iq.FU_type_0::SimdMult                   0      0.00%     71.28% # Type of FU issued
system.cpu.iq.FU_type_0::SimdMultAcc                0      0.00%     71.28% # Type of FU issued
system.cpu.iq.FU_type_0::SimdShift                  0      0.00%     71.28% # Type of FU issued
system.cpu.iq.FU_type_0::SimdShiftAcc               0      0.00%     71.28% # Type of FU issued
system.cpu.iq.FU_type_0::SimdSqrt                   0      0.00%     71.28% # Type of FU issued
system.cpu.iq.FU_type_0::SimdFloatAdd               0      0.00%     71.28% # Type of FU issued
system.cpu.iq.FU_type_0::SimdFloatAlu               0      0.00%     71.28% # Type of FU issued
system.cpu.iq.FU_type_0::SimdFloatCmp               0      0.00%     71.28% # Type of FU issued
system.cpu.iq.FU_type_0::SimdFloatCvt               0      0.00%     71.28% # Type of FU issued
system.cpu.iq.FU_type_0::SimdFloatDiv               0      0.00%     71.28% # Type of FU issued
system.cpu.iq.FU_type_0::SimdFloatMisc              0      0.00%     71.28% # Type of FU issued
system.cpu.iq.FU_type_0::SimdFloatMult              0      0.00%     71.28% # Type of FU issued
system.cpu.iq.FU_type_0::SimdFloatMultAcc            0      0.00%     71.28% # Type of FU issued
[...]
system.cpu.dcache.overall_misses::cpu.data        90624                       # number of overall misses
system.cpu.dcache.overall_misses::total         90624                       # number of overall misses
system.cpu.dcache.ReadReq_miss_latency::cpu.data   2157560250                       # number of ReadReq miss cycles
system.cpu.dcache.ReadReq_miss_latency::total   2157560250                       # number of ReadReq miss cycles
system.cpu.dcache.WriteReq_miss_latency::cpu.data   6413957996                       # number of WriteReq miss cycles
system.cpu.dcache.WriteReq_miss_latency::total   6413957996                       # number of WriteReq miss cycles
system.cpu.dcache.LoadLockedReq_miss_latency::cpu.data     39243250                       # number of LoadLockedReq miss cycles
system.cpu.dcache.LoadLockedReq_miss_latency::total     39243250                       # number of LoadLockedReq miss cycles
system.cpu.dcache.demand_miss_latency::cpu.data   8571518246                       # number of demand (read+write) miss cycles
system.cpu.dcache.demand_miss_latency::total   8571518246                       # number of demand (read+write) miss cycles
system.cpu.dcache.overall_miss_latency::cpu.data   8571518246                       # number of overall miss cycles
system.cpu.dcache.overall_miss_latency::total   8571518246                       # number of overall miss cycles
system.cpu.dcache.ReadReq_accesses::cpu.data       156243                       # number of ReadReq accesses(hits+misses)
system.cpu.dcache.ReadReq_accesses::total       156243                       # number of ReadReq accesses(hits+misses)
system.cpu.dcache.WriteReq_accesses::cpu.data       130083                       # number of WriteReq accesses(hits+misses)
system.cpu.dcache.WriteReq_accesses::total       130083                       # number of WriteReq accesses(hits+misses)
system.cpu.dcache.LoadLockedReq_accesses::cpu.data         2706                       # number of LoadLockedReq accesses(hits+misses)
system.cpu.dcache.LoadLockedReq_accesses::total         2706                       # number of LoadLockedReq accesses(hits+misses)
system.cpu.dcache.StoreCondReq_accesses::cpu.data         2465                       # number of StoreCondReq accesses(hits+misses)
system.cpu.dcache.StoreCondReq_accesses::total         2465                       # number of StoreCondReq accesses(hits+misses)
system.cpu.dcache.demand_accesses::cpu.data       286326                       # number of demand (read+write) accesses
system.cpu.dcache.demand_accesses::total       286326                       # number of demand (read+write) accesses
system.cpu.dcache.overall_accesses::cpu.data       286326                       # number of overall (read+write) accesses
system.cpu.dcache.overall_accesses::total       286326                       # number of overall (read+write) accesses
system.cpu.dcache.ReadReq_miss_rate::cpu.data     0.149191                       # miss rate for ReadReq accesses
system.cpu.dcache.ReadReq_miss_rate::total     0.149191                       # miss rate for ReadReq accesses
system.cpu.dcache.WriteReq_miss_rate::cpu.data     0.517470                       # miss rate for WriteReq accesses
system.cpu.dcache.WriteReq_miss_rate::total     0.517470                       # miss rate for WriteReq accesses
system.cpu.dcache.LoadLockedReq_miss_rate::cpu.data     0.140798                       # miss rate for LoadLockedReq accesses
system.cpu.dcache.LoadLockedReq_miss_rate::total     0.140798                       # miss rate for LoadLockedReq accesses
system.cpu.dcache.demand_miss_rate::cpu.data     0.316506                       # miss rate for demand accesses
system.cpu.dcache.demand_miss_rate::total     0.316506                       # miss rate for demand accesses
system.cpu.dcache.overall_miss_rate::cpu.data     0.316506                       # miss rate for overall accesses
system.cpu.dcache.overall_miss_rate::total     0.316506                       # miss rate for overall accesses
system.cpu.dcache.ReadReq_avg_miss_latency::cpu.data 92559.427284                       # average ReadReq miss latency
system.cpu.dcache.ReadReq_avg_miss_latency::total 92559.427284                       # average ReadReq miss latency
system.cpu.dcache.WriteReq_avg_miss_latency::cpu.data 95284.160739                       # average WriteReq miss latency
system.cpu.dcache.WriteReq_avg_miss_latency::total 95284.160739                       # average WriteReq miss latency
system.cpu.dcache.LoadLockedReq_avg_miss_latency::cpu.data 103000.656168                       # average LoadLockedReq miss latency
system.cpu.dcache.LoadLockedReq_avg_miss_latency::total 103000.656168                       # average LoadLockedReq miss latency
system.cpu.dcache.demand_avg_miss_latency::cpu.data 94583.313979                       # average overall miss latency
system.cpu.dcache.demand_avg_miss_latency::total 94583.313979                       # average overall miss latency
system.cpu.dcache.overall_avg_miss_latency::cpu.data 94583.313979                       # average overall miss latency
system.cpu.dcache.overall_avg_miss_latency::total 94583.313979                       # average overall miss latency
system.cpu.dcache.blocked_cycles::no_mshrs         4383                       # number of cycles access was blocked
system.cpu.dcache.blocked_cycles::no_targets            0                       # number of cycles access was blocked
system.cpu.dcache.blocked::no_mshrs               861                       # number of cycles access was blocked
system.cpu.dcache.blocked::no_targets               0                       # number of cycles access was blocked
system.cpu.dcache.avg_blocked_cycles::no_mshrs     5.090592                       # average number of cycles each access was blocked
system.cpu.dcache.avg_blocked_cycles::no_targets          nan                       # average number of cycles each access was blocked
system.cpu.dcache.fast_writes                       0                       # number of fast writes performed
system.cpu.dcache.cache_copies                      0                       # number of cache copies performed
system.cpu.dcache.writebacks::writebacks        10289                       # number of writebacks
system.cpu.dcache.writebacks::total             10289                       # number of writebacks
system.cpu.dcache.ReadReq_mshr_hits::cpu.data        15198                       # number of ReadReq MSHR hits
system.cpu.dcache.ReadReq_mshr_hits::total        15198                       # number of ReadReq MSHR hits
system.cpu.dcache.WriteReq_mshr_hits::cpu.data        58392                       # number of WriteReq MSHR hits
system.cpu.dcache.WriteReq_mshr_hits::total        58392                       # number of WriteReq MSHR hits
system.cpu.dcache.LoadLockedReq_mshr_hits::cpu.data          176                       # number of LoadLockedReq MSHR hits
system.cpu.dcache.LoadLockedReq_mshr_hits::total          176                       # number of LoadLockedReq MSHR hits
system.cpu.dcache.demand_mshr_hits::cpu.data        73590                       # number of demand (read+write) MSHR hits
system.cpu.dcache.demand_mshr_hits::total        73590                       # number of demand (read+write) MSHR hits
system.cpu.dcache.overall_mshr_hits::cpu.data        73590                       # number of overall MSHR hits
system.cpu.dcache.overall_mshr_hits::total        73590                       # number of overall MSHR hits
system.cpu.dcache.ReadReq_mshr_misses::cpu.data         8112                       # number of ReadReq MSHR misses
system.cpu.dcache.ReadReq_mshr_misses::total         8112                       # number of ReadReq MSHR misses
system.cpu.dcache.WriteReq_mshr_misses::cpu.data         8922                       # number of WriteReq MSHR misses
system.cpu.dcache.WriteReq_mshr_misses::total         8922                       # number of WriteReq MSHR misses
system.cpu.dcache.LoadLockedReq_mshr_misses::cpu.data          205                       # number of LoadLockedReq MSHR misses
system.cpu.dcache.LoadLockedReq_mshr_misses::total          205                       # number of LoadLockedReq MSHR misses
system.cpu.dcache.demand_mshr_misses::cpu.data        17034                       # number of demand (read+write) MSHR misses
system.cpu.dcache.demand_mshr_misses::total        17034                       # number of demand (read+write) MSHR misses
system.cpu.dcache.overall_mshr_misses::cpu.data        17034                       # number of overall MSHR misses
system.cpu.dcache.overall_mshr_misses::total        17034                       # number of overall MSHR misses
system.cpu.dcache.ReadReq_mshr_miss_latency::cpu.data    606738250                       # number of ReadReq MSHR miss cycles
system.cpu.dcache.ReadReq_mshr_miss_latency::total    606738250                       # number of ReadReq MSHR miss cycles
system.cpu.dcache.WriteReq_mshr_miss_latency::cpu.data    663864693                       # number of WriteReq MSHR miss cycles
system.cpu.dcache.WriteReq_mshr_miss_latency::total    663864693                       # number of WriteReq MSHR miss cycles
system.cpu.dcache.LoadLockedReq_mshr_miss_latency::cpu.data     15986750                       # number of LoadLockedReq MSHR miss cycles
system.cpu.dcache.LoadLockedReq_mshr_miss_latency::total     15986750                       # number of LoadLockedReq MSHR miss cycles
system.cpu.dcache.demand_mshr_miss_latency::cpu.data   1270602943                       # number of demand (read+write) MSHR miss cycles
system.cpu.dcache.demand_mshr_miss_latency::total   1270602943                       # number of demand (read+write) MSHR miss cycles
system.cpu.dcache.overall_mshr_miss_latency::cpu.data   1270602943                       # number of overall MSHR miss cycles
system.cpu.dcache.overall_mshr_miss_latency::total   1270602943                       # number of overall MSHR miss cycles
system.cpu.dcache.WriteReq_mshr_uncacheable_latency::cpu.data      1540000                       # number of WriteReq MSHR uncacheable cycles
system.cpu.dcache.WriteReq_mshr_uncacheable_latency::total      1540000                       # number of WriteReq MSHR uncacheable cycles
system.cpu.dcache.overall_mshr_uncacheable_latency::cpu.data      1540000                       # number of overall MSHR uncacheable cycles
system.cpu.dcache.overall_mshr_uncacheable_latency::total      1540000                       # number of overall MSHR uncacheable cycles
system.cpu.dcache.ReadReq_mshr_miss_rate::cpu.data     0.051919                       # mshr miss rate for ReadReq accesses
system.cpu.dcache.ReadReq_mshr_miss_rate::total     0.051919                       # mshr miss rate for ReadReq accesses
system.cpu.dcache.WriteReq_mshr_miss_rate::cpu.data     0.068587                       # mshr miss rate for WriteReq accesses
system.cpu.dcache.WriteReq_mshr_miss_rate::total     0.068587                       # mshr miss rate for WriteReq accesses
system.cpu.dcache.LoadLockedReq_mshr_miss_rate::cpu.data     0.075758                       # mshr miss rate for LoadLockedReq accesses
system.cpu.dcache.LoadLockedReq_mshr_miss_rate::total     0.075758                       # mshr miss rate for LoadLockedReq accesses
system.cpu.dcache.demand_mshr_miss_rate::cpu.data     0.059492                       # mshr miss rate for demand accesses
system.cpu.dcache.demand_mshr_miss_rate::total     0.059492                       # mshr miss rate for demand accesses
system.cpu.dcache.overall_mshr_miss_rate::cpu.data     0.059492                       # mshr miss rate for overall accesses
system.cpu.dcache.overall_mshr_miss_rate::total     0.059492                       # mshr miss rate for overall accesses
system.cpu.dcache.ReadReq_avg_mshr_miss_latency::cpu.data 74795.149162                       # average ReadReq mshr miss latency
system.cpu.dcache.ReadReq_avg_mshr_miss_latency::total 74795.149162                       # average ReadReq mshr miss latency
system.cpu.dcache.WriteReq_avg_mshr_miss_latency::cpu.data 74407.609617                       # average WriteReq mshr miss latency
system.cpu.dcache.WriteReq_avg_mshr_miss_latency::total 74407.609617                       # average WriteReq mshr miss latency
system.cpu.dcache.LoadLockedReq_avg_mshr_miss_latency::cpu.data 77984.146341                       # average LoadLockedReq mshr miss latency
system.cpu.dcache.LoadLockedReq_avg_mshr_miss_latency::total 77984.146341                       # average LoadLockedReq mshr miss latency
system.cpu.dcache.demand_avg_mshr_miss_latency::cpu.data 74592.165258                       # average overall mshr miss latency
system.cpu.dcache.demand_avg_mshr_miss_latency::total 74592.165258                       # average overall mshr miss latency
system.cpu.dcache.overall_avg_mshr_miss_latency::cpu.data 74592.165258                       # average overall mshr miss latency
system.cpu.dcache.overall_avg_mshr_miss_latency::total 74592.165258                       # average overall mshr miss latency
system.cpu.dcache.WriteReq_avg_mshr_uncacheable_latency::cpu.data          inf                       # average WriteReq mshr uncacheable latency
system.cpu.dcache.WriteReq_avg_mshr_uncacheable_latency::total          inf                       # average WriteReq mshr uncacheable latency
system.cpu.dcache.overall_avg_mshr_uncacheable_latency::cpu.data          inf                       # average overall mshr uncacheable latency
system.cpu.dcache.overall_avg_mshr_uncacheable_latency::total          inf                       # average overall mshr uncacheable latency
system.cpu.dcache.no_allocate_misses                0                       # Number of misses that were no-allocate
system.cpu.kern.inst.arm                            0                       # number of arm instructions executed
system.cpu.kern.inst.quiesce                        0                       # number of quiesce instructions executed
system.cpu.kern.inst.hwrei                       2734                       # number of hwrei instructions executed
system.cpu.kern.ipl_count::0                      571     45.90%     45.90% # number of times we switched to this ipl
system.cpu.kern.ipl_count::22                       7      0.56%     46.46% # number of times we switched to this ipl
system.cpu.kern.ipl_count::31                     666     53.54%    100.00% # number of times we switched to this ipl
system.cpu.kern.ipl_count::total                 1244                       # number of times we switched to this ipl
system.cpu.kern.ipl_good::0                       569     49.69%     49.69% # number of times we switched to this ipl from a different ipl
system.cpu.kern.ipl_good::22                        7      0.61%     50.31% # number of times we switched to this ipl from a different ipl
system.cpu.kern.ipl_good::31                      569     49.69%    100.00% # number of times we switched to this ipl from a different ipl
system.cpu.kern.ipl_good::total                  1145                       # number of times we switched to this ipl from a different ipl
system.cpu.kern.ipl_ticks::0               6771230000     87.80%     87.80% # number of cycles we spent at this ipl
system.cpu.kern.ipl_ticks::22                13770000      0.18%     87.98% # number of cycles we spent at this ipl
system.cpu.kern.ipl_ticks::31               927090000     12.02%    100.00% # number of cycles we spent at this ipl
system.cpu.kern.ipl_ticks::total           7712090000                       # number of cycles we spent at this ipl
system.cpu.kern.ipl_used::0                  0.996497                       # fraction of swpipl calls that actually changed the ipl
system.cpu.kern.ipl_used::22                        1                       # fraction of swpipl calls that actually changed the ipl
system.cpu.kern.ipl_used::31                 0.854354                       # fraction of swpipl calls that actually changed the ipl
system.cpu.kern.ipl_used::total              0.920418                       # fraction of swpipl calls that actually changed the ipl
system.cpu.kern.syscall::2                          1      5.88%      5.88% # number of syscalls executed
system.cpu.kern.syscall::3                          2     11.76%     17.65% # number of syscalls executed
system.cpu.kern.syscall::6                          2     11.76%     29.41% # number of syscalls executed
system.cpu.kern.syscall::17                         1      5.88%     35.29% # number of syscalls executed
system.cpu.kern.syscall::33                         1      5.88%     41.18% # number of syscalls executed
system.cpu.kern.syscall::45                         3     17.65%     58.82% # number of syscalls executed
system.cpu.kern.syscall::48                         1      5.88%     64.71% # number of syscalls executed
system.cpu.kern.syscall::59                         1      5.88%     70.59% # number of syscalls executed
system.cpu.kern.syscall::71                         4     23.53%     94.12% # number of syscalls executed
system.cpu.kern.syscall::74                         1      5.88%    100.00% # number of syscalls executed
system.cpu.kern.syscall::total                     17                       # number of syscalls executed
system.cpu.kern.callpal::swpctx                   118      8.33%      8.33% # number of callpals executed
system.cpu.kern.callpal::tbi                        6      0.42%      8.76% # number of callpals executed
system.cpu.kern.callpal::swpipl                  1046     73.87%     82.63% # number of callpals executed
system.cpu.kern.callpal::rdps                      15      1.06%     83.69% # number of callpals executed
system.cpu.kern.callpal::wrusp                      1      0.07%     83.76% # number of callpals executed
system.cpu.kern.callpal::rdusp                      1      0.07%     83.83% # number of callpals executed
system.cpu.kern.callpal::rti                      191     13.49%     97.32% # number of callpals executed
system.cpu.kern.callpal::callsys                   34      2.40%     99.72% # number of callpals executed
system.cpu.kern.callpal::imb                        4      0.28%    100.00% # number of callpals executed
system.cpu.kern.callpal::total                   1416                       # number of callpals executed
system.cpu.kern.mode_switch::kernel               309                       # number of protection mode switches
system.cpu.kern.mode_switch::user                 184                       # number of protection mode switches
system.cpu.kern.mode_switch::idle                   0                       # number of protection mode switches
system.cpu.kern.mode_good::kernel                 184                      
system.cpu.kern.mode_good::user                   184                      
system.cpu.kern.mode_good::idle                     0                      
system.cpu.kern.mode_switch_good::kernel     0.595469                       # fraction of useful protection mode switches
system.cpu.kern.mode_switch_good::user              1                       # fraction of useful protection mode switches
system.cpu.kern.mode_switch_good::idle            nan                       # fraction of useful protection mode switches
system.cpu.kern.mode_switch_good::total      0.746450                       # fraction of useful protection mode switches
system.cpu.kern.mode_ticks::kernel         4830840000     62.64%     62.64% # number of ticks spent at the given mode
system.cpu.kern.mode_ticks::user           2881250000     37.36%    100.00% # number of ticks spent at the given mode
system.cpu.kern.mode_ticks::idle                    0      0.00%    100.00% # number of ticks spent at the given mode
system.cpu.kern.swap_context                      118                       # number of times the context was actually changed

---------- End Simulation Statistics   ----------
