
---------- Begin Simulation Statistics ----------
sim_seconds                                  3.083974                       # Number of seconds simulated
sim_ticks                                3083974140000                       # Number of ticks simulated
final_tick                               3083974140000                       # Number of ticks from beginning of simulation (restored from checkpoints and never reset)
sim_freq                                 1000000000000                       # Frequency of simulated ticks
host_inst_rate                                3641427                       # Simulator instruction rate (inst/s)
host_op_rate                                  3641424                       # Simulator op (including micro ops) rate (op/s)
host_tick_rate                           111594264105                       # Simulator tick rate (ticks/s)
host_mem_usage                                 455660                       # Number of bytes of host memory used
host_seconds                                    27.64                       # Real time elapsed on the host
sim_insts                                   100632858                       # Number of instructions simulated
sim_ops                                     100632858                       # Number of ops (including micro ops) simulated
system.voltage_domain.voltage                       1                       # Voltage in Volts
system.clk_domain.clock                          1000                       # Clock period in ticks
system.mem_ctrls.bytes_read::cpu0.inst       55664192                       # Number of bytes read from this memory
system.mem_ctrls.bytes_read::cpu0.data      164127360                       # Number of bytes read from this memory
system.mem_ctrls.bytes_read::tsunami.ide         4032                       # Number of bytes read from this memory
system.mem_ctrls.bytes_read::cpu1.inst       39365056                       # Number of bytes read from this memory
system.mem_ctrls.bytes_read::cpu1.data       12776000                       # Number of bytes read from this memory
system.mem_ctrls.bytes_read::total          271936640                       # Number of bytes read from this memory
system.mem_ctrls.bytes_inst_read::cpu0.inst     55664192                       # Number of instructions bytes read from this memory
system.mem_ctrls.bytes_inst_read::cpu1.inst     39365056                       # Number of instructions bytes read from this memory
system.mem_ctrls.bytes_inst_read::total      95029248                       # Number of instructions bytes read from this memory
system.mem_ctrls.bytes_written::writebacks     28225664                       # Number of bytes written to this memory
system.mem_ctrls.bytes_written::tsunami.ide      2832384                       # Number of bytes written to this memory
system.mem_ctrls.bytes_written::total        31058048                       # Number of bytes written to this memory
system.mem_ctrls.num_reads::cpu0.inst          869753                       # Number of read requests responded to by this memory
system.mem_ctrls.num_reads::cpu0.data         2564490                       # Number of read requests responded to by this memory
system.mem_ctrls.num_reads::tsunami.ide            63                       # Number of read requests responded to by this memory
system.mem_ctrls.num_reads::cpu1.inst          615079                       # Number of read requests responded to by this memory
system.mem_ctrls.num_reads::cpu1.data          199625                       # Number of read requests responded to by this memory
system.mem_ctrls.num_reads::total             4249010                       # Number of read requests responded to by this memory
system.mem_ctrls.num_writes::writebacks        441026                       # Number of write requests responded to by this memory
system.mem_ctrls.num_writes::tsunami.ide        44256                       # Number of write requests responded to by this memory
system.mem_ctrls.num_writes::total             485282                       # Number of write requests responded to by this memory
system.mem_ctrls.bw_read::cpu0.inst          18049500                       # Total read bandwidth from this memory (bytes/s)
system.mem_ctrls.bw_read::cpu0.data          53219435                       # Total read bandwidth from this memory (bytes/s)
system.mem_ctrls.bw_read::tsunami.ide            1307                       # Total read bandwidth from this memory (bytes/s)
system.mem_ctrls.bw_read::cpu1.inst          12764392                       # Total read bandwidth from this memory (bytes/s)
system.mem_ctrls.bw_read::cpu1.data           4142707                       # Total read bandwidth from this memory (bytes/s)
system.mem_ctrls.bw_read::total              88177341                       # Total read bandwidth from this memory (bytes/s)
system.mem_ctrls.bw_inst_read::cpu0.inst     18049500                       # Instruction read bandwidth from this memory (bytes/s)
system.mem_ctrls.bw_inst_read::cpu1.inst     12764392                       # Instruction read bandwidth from this memory (bytes/s)
system.mem_ctrls.bw_inst_read::total         30813893                       # Instruction read bandwidth from this memory (bytes/s)
system.mem_ctrls.bw_write::writebacks         9152367                       # Write bandwidth from this memory (bytes/s)
system.mem_ctrls.bw_write::tsunami.ide         918420                       # Write bandwidth from this memory (bytes/s)
system.mem_ctrls.bw_write::total             10070787                       # Write bandwidth from this memory (bytes/s)
system.mem_ctrls.bw_total::writebacks         9152367                       # Total bandwidth to/from this memory (bytes/s)
system.mem_ctrls.bw_total::cpu0.inst         18049500                       # Total bandwidth to/from this memory (bytes/s)
system.mem_ctrls.bw_total::cpu0.data         53219435                       # Total bandwidth to/from this memory (bytes/s)
system.mem_ctrls.bw_total::tsunami.ide         919728                       # Total bandwidth to/from this memory (bytes/s)
system.mem_ctrls.bw_total::cpu1.inst         12764392                       # Total bandwidth to/from this memory (bytes/s)
system.mem_ctrls.bw_total::cpu1.data          4142707                       # Total bandwidth to/from this memory (bytes/s)
system.mem_ctrls.bw_total::total             98248129                       # Total bandwidth to/from this memory (bytes/s)
system.mem_ctrls.readReqs                           0                       # Number of read requests accepted
system.mem_ctrls.writeReqs                          0                       # Number of write requests accepted
system.mem_ctrls.readBursts                         0                       # Number of DRAM read bursts, including those serviced by the write queue
system.mem_ctrls.writeBursts                        0                       # Number of DRAM write bursts, including those merged in the write queue
system.mem_ctrls.bytesReadDRAM                      0                       # Total number of bytes read from DRAM
system.mem_ctrls.bytesReadWrQ                       0                       # Total number of bytes read from write queue
system.mem_ctrls.bytesWritten                       0                       # Total number of bytes written to DRAM
system.mem_ctrls.bytesReadSys                       0                       # Total read bytes from the system interface side
system.mem_ctrls.bytesWrittenSys                    0                       # Total written bytes from the system interface side
system.mem_ctrls.servicedByWrQ                      0                       # Number of DRAM read bursts serviced by the write queue
system.mem_ctrls.mergedWrBursts                     0                       # Number of DRAM write bursts merged with an existing one
system.mem_ctrls.neitherReadNorWriteReqs            0                       # Number of requests that are neither read nor write
system.mem_ctrls.perBankRdBursts::0                 0                       # Per bank write bursts
system.mem_ctrls.perBankRdBursts::1                 0                       # Per bank write bursts
system.mem_ctrls.perBankRdBursts::2                 0                       # Per bank write bursts
system.mem_ctrls.perBankRdBursts::3                 0                       # Per bank write bursts
system.mem_ctrls.perBankRdBursts::4                 0                       # Per bank write bursts
system.mem_ctrls.perBankRdBursts::5                 0                       # Per bank write bursts
system.mem_ctrls.perBankRdBursts::6                 0                       # Per bank write bursts
system.mem_ctrls.perBankRdBursts::7                 0                       # Per bank write bursts
system.mem_ctrls.perBankRdBursts::8                 0                       # Per bank write bursts
system.mem_ctrls.perBankRdBursts::9                 0                       # Per bank write bursts
system.mem_ctrls.perBankRdBursts::10                0                       # Per bank write bursts
system.mem_ctrls.perBankRdBursts::11                0                       # Per bank write bursts
system.mem_ctrls.perBankRdBursts::12                0                       # Per bank write bursts
system.mem_ctrls.perBankRdBursts::13                0                       # Per bank write bursts
system.mem_ctrls.perBankRdBursts::14                0                       # Per bank write bursts
system.mem_ctrls.perBankRdBursts::15                0                       # Per bank write bursts
system.mem_ctrls.perBankWrBursts::0                 0                       # Per bank write bursts
system.mem_ctrls.perBankWrBursts::1                 0                       # Per bank write bursts
system.mem_ctrls.perBankWrBursts::2                 0                       # Per bank write bursts
system.mem_ctrls.perBankWrBursts::3                 0                       # Per bank write bursts
system.mem_ctrls.perBankWrBursts::4                 0                       # Per bank write bursts
system.mem_ctrls.perBankWrBursts::5                 0                       # Per bank write bursts
system.mem_ctrls.perBankWrBursts::6                 0                       # Per bank write bursts
system.mem_ctrls.perBankWrBursts::7                 0                       # Per bank write bursts
system.mem_ctrls.perBankWrBursts::8                 0                       # Per bank write bursts
system.mem_ctrls.perBankWrBursts::9                 0                       # Per bank write bursts
system.mem_ctrls.perBankWrBursts::10                0                       # Per bank write bursts
system.mem_ctrls.perBankWrBursts::11                0                       # Per bank write bursts
system.mem_ctrls.perBankWrBursts::12                0                       # Per bank write bursts
system.mem_ctrls.perBankWrBursts::13                0                       # Per bank write bursts
system.mem_ctrls.perBankWrBursts::14                0                       # Per bank write bursts
system.mem_ctrls.perBankWrBursts::15                0                       # Per bank write bursts
system.mem_ctrls.numRdRetry                         0                       # Number of times read queue was full causing retry
system.mem_ctrls.numWrRetry                         0                       # Number of times write queue was full causing retry
system.mem_ctrls.totGap                             0                       # Total gap between requests
system.mem_ctrls.readPktSize::0                     0                       # Read request sizes (log2)
system.mem_ctrls.readPktSize::1                     0                       # Read request sizes (log2)
system.mem_ctrls.readPktSize::2                     0                       # Read request sizes (log2)
system.mem_ctrls.readPktSize::3                     0                       # Read request sizes (log2)
system.mem_ctrls.readPktSize::4                     0                       # Read request sizes (log2)
system.mem_ctrls.readPktSize::5                     0                       # Read request sizes (log2)
system.mem_ctrls.readPktSize::6                     0                       # Read request sizes (log2)
system.mem_ctrls.writePktSize::0                    0                       # Write request sizes (log2)
system.mem_ctrls.writePktSize::1                    0                       # Write request sizes (log2)
system.mem_ctrls.writePktSize::2                    0                       # Write request sizes (log2)
system.mem_ctrls.writePktSize::3                    0                       # Write request sizes (log2)
system.mem_ctrls.writePktSize::4                    0                       # Write request sizes (log2)
system.mem_ctrls.writePktSize::5                    0                       # Write request sizes (log2)
system.mem_ctrls.writePktSize::6                    0                       # Write request sizes (log2)
system.mem_ctrls.rdQLenPdf::0                       0                       # What read queue length does an incoming req see
system.mem_ctrls.rdQLenPdf::1                       0                       # What read queue length does an incoming req see
system.mem_ctrls.rdQLenPdf::2                       0                       # What read queue length does an incoming req see
system.mem_ctrls.rdQLenPdf::3                       0                       # What read queue length does an incoming req see
system.mem_ctrls.rdQLenPdf::4                       0                       # What read queue length does an incoming req see
system.mem_ctrls.rdQLenPdf::5                       0                       # What read queue length does an incoming req see
system.mem_ctrls.rdQLenPdf::6                       0                       # What read queue length does an incoming req see
system.mem_ctrls.rdQLenPdf::7                       0                       # What read queue length does an incoming req see
system.mem_ctrls.rdQLenPdf::8                       0                       # What read queue length does an incoming req see
system.mem_ctrls.rdQLenPdf::9                       0                       # What read queue length does an incoming req see
system.mem_ctrls.rdQLenPdf::10                      0                       # What read queue length does an incoming req see
system.mem_ctrls.rdQLenPdf::11                      0                       # What read queue length does an incoming req see
system.mem_ctrls.rdQLenPdf::12                      0                       # What read queue length does an incoming req see
system.mem_ctrls.rdQLenPdf::13                      0                       # What read queue length does an incoming req see
system.mem_ctrls.rdQLenPdf::14                      0                       # What read queue length does an incoming req see
system.mem_ctrls.rdQLenPdf::15                      0                       # What read queue length does an incoming req see
system.mem_ctrls.rdQLenPdf::16                      0                       # What read queue length does an incoming req see
system.mem_ctrls.rdQLenPdf::17                      0                       # What read queue length does an incoming req see
system.mem_ctrls.rdQLenPdf::18                      0                       # What read queue length does an incoming req see
system.mem_ctrls.rdQLenPdf::19                      0                       # What read queue length does an incoming req see
system.mem_ctrls.rdQLenPdf::20                      0                       # What read queue length does an incoming req see
system.mem_ctrls.rdQLenPdf::21                      0                       # What read queue length does an incoming req see
system.mem_ctrls.rdQLenPdf::22                      0                       # What read queue length does an incoming req see
system.mem_ctrls.rdQLenPdf::23                      0                       # What read queue length does an incoming req see
system.mem_ctrls.rdQLenPdf::24                      0                       # What read queue length does an incoming req see
system.mem_ctrls.rdQLenPdf::25                      0                       # What read queue length does an incoming req see
system.mem_ctrls.rdQLenPdf::26                      0                       # What read queue length does an incoming req see
system.mem_ctrls.rdQLenPdf::27                      0                       # What read queue length does an incoming req see
system.mem_ctrls.rdQLenPdf::28                      0                       # What read queue length does an incoming req see
system.mem_ctrls.rdQLenPdf::29                      0                       # What read queue length does an incoming req see
system.mem_ctrls.rdQLenPdf::30                      0                       # What read queue length does an incoming req see
system.mem_ctrls.rdQLenPdf::31                      0                       # What read queue length does an incoming req see
system.mem_ctrls.wrQLenPdf::0                       0                       # What write queue length does an incoming req see
system.mem_ctrls.wrQLenPdf::1                       0                       # What write queue length does an incoming req see
system.mem_ctrls.wrQLenPdf::2                       0                       # What write queue length does an incoming req see
system.mem_ctrls.wrQLenPdf::3                       0                       # What write queue length does an incoming req see
system.mem_ctrls.wrQLenPdf::4                       0                       # What write queue length does an incoming req see
system.mem_ctrls.wrQLenPdf::5                       0                       # What write queue length does an incoming req see
system.mem_ctrls.wrQLenPdf::6                       0                       # What write queue length does an incoming req see
system.mem_ctrls.wrQLenPdf::7                       0                       # What write queue length does an incoming req see
system.mem_ctrls.wrQLenPdf::8                       0                       # What write queue length does an incoming req see
system.mem_ctrls.wrQLenPdf::9                       0                       # What write queue length does an incoming req see
system.mem_ctrls.wrQLenPdf::10                      0                       # What write queue length does an incoming req see
system.mem_ctrls.wrQLenPdf::11                      0                       # What write queue length does an incoming req see
system.mem_ctrls.wrQLenPdf::12                      0                       # What write queue length does an incoming req see
system.mem_ctrls.wrQLenPdf::13                      0                       # What write queue length does an incoming req see
system.mem_ctrls.wrQLenPdf::14                      0                       # What write queue length does an incoming req see
system.mem_ctrls.wrQLenPdf::15                      0                       # What write queue length does an incoming req see
system.mem_ctrls.wrQLenPdf::16                      0                       # What write queue length does an incoming req see
system.mem_ctrls.wrQLenPdf::17                      0                       # What write queue length does an incoming req see
system.mem_ctrls.wrQLenPdf::18                      0                       # What write queue length does an incoming req see
system.mem_ctrls.wrQLenPdf::19                      0                       # What write queue length does an incoming req see
system.mem_ctrls.wrQLenPdf::20                      0                       # What write queue length does an incoming req see
system.mem_ctrls.wrQLenPdf::21                      0                       # What write queue length does an incoming req see
system.mem_ctrls.wrQLenPdf::22                      0                       # What write queue length does an incoming req see
system.mem_ctrls.wrQLenPdf::23                      0                       # What write queue length does an incoming req see
system.mem_ctrls.wrQLenPdf::24                      0                       # What write queue length does an incoming req see
system.mem_ctrls.wrQLenPdf::25                      0                       # What write queue length does an incoming req see
system.mem_ctrls.wrQLenPdf::26                      0                       # What write queue length does an incoming req see
system.mem_ctrls.wrQLenPdf::27                      0                       # What write queue length does an incoming req see
system.mem_ctrls.wrQLenPdf::28                      0                       # What write queue length does an incoming req see
system.mem_ctrls.wrQLenPdf::29                      0                       # What write queue length does an incoming req see
system.mem_ctrls.wrQLenPdf::30                      0                       # What write queue length does an incoming req see
system.mem_ctrls.wrQLenPdf::31                      0                       # What write queue length does an incoming req see
system.mem_ctrls.wrQLenPdf::32                      0                       # What write queue length does an incoming req see
system.mem_ctrls.wrQLenPdf::33                      0                       # What write queue length does an incoming req see
system.mem_ctrls.wrQLenPdf::34                      0                       # What write queue length does an incoming req see
system.mem_ctrls.wrQLenPdf::35                      0                       # What write queue length does an incoming req see
system.mem_ctrls.wrQLenPdf::36                      0                       # What write queue length does an incoming req see
system.mem_ctrls.wrQLenPdf::37                      0                       # What write queue length does an incoming req see
system.mem_ctrls.wrQLenPdf::38                      0                       # What write queue length does an incoming req see
system.mem_ctrls.wrQLenPdf::39                      0                       # What write queue length does an incoming req see
system.mem_ctrls.wrQLenPdf::40                      0                       # What write queue length does an incoming req see
system.mem_ctrls.wrQLenPdf::41                      0                       # What write queue length does an incoming req see
system.mem_ctrls.wrQLenPdf::42                      0                       # What write queue length does an incoming req see
system.mem_ctrls.wrQLenPdf::43                      0                       # What write queue length does an incoming req see
system.mem_ctrls.wrQLenPdf::44                      0                       # What write queue length does an incoming req see
system.mem_ctrls.wrQLenPdf::45                      0                       # What write queue length does an incoming req see
system.mem_ctrls.wrQLenPdf::46                      0                       # What write queue length does an incoming req see
system.mem_ctrls.wrQLenPdf::47                      0                       # What write queue length does an incoming req see
system.mem_ctrls.wrQLenPdf::48                      0                       # What write queue length does an incoming req see
system.mem_ctrls.wrQLenPdf::49                      0                       # What write queue length does an incoming req see
system.mem_ctrls.wrQLenPdf::50                      0                       # What write queue length does an incoming req see
system.mem_ctrls.wrQLenPdf::51                      0                       # What write queue length does an incoming req see
system.mem_ctrls.wrQLenPdf::52                      0                       # What write queue length does an incoming req see
system.mem_ctrls.wrQLenPdf::53                      0                       # What write queue length does an incoming req see
system.mem_ctrls.wrQLenPdf::54                      0                       # What write queue length does an incoming req see
system.mem_ctrls.wrQLenPdf::55                      0                       # What write queue length does an incoming req see
system.mem_ctrls.wrQLenPdf::56                      0                       # What write queue length does an incoming req see
system.mem_ctrls.wrQLenPdf::57                      0                       # What write queue length does an incoming req see
system.mem_ctrls.wrQLenPdf::58                      0                       # What write queue length does an incoming req see
system.mem_ctrls.wrQLenPdf::59                      0                       # What write queue length does an incoming req see
system.mem_ctrls.wrQLenPdf::60                      0                       # What write queue length does an incoming req see
system.mem_ctrls.wrQLenPdf::61                      0                       # What write queue length does an incoming req see
system.mem_ctrls.wrQLenPdf::62                      0                       # What write queue length does an incoming req see
system.mem_ctrls.wrQLenPdf::63                      0                       # What write queue length does an incoming req see
system.mem_ctrls.totQLat                            0                       # Total ticks spent queuing
system.mem_ctrls.totMemAccLat                       0                       # Total ticks spent from burst creation until serviced by the DRAM
system.mem_ctrls.totBusLat                          0                       # Total ticks spent in databus transfers
system.mem_ctrls.avgQLat                          nan                       # Average queueing delay per DRAM burst
system.mem_ctrls.avgBusLat                        nan                       # Average bus latency per DRAM burst
system.mem_ctrls.avgMemAccLat                     nan                       # Average memory access latency per DRAM burst
system.mem_ctrls.avgRdBW                         0.00                       # Average DRAM read bandwidth in MiByte/s
system.mem_ctrls.avgWrBW                         0.00                       # Average achieved write bandwidth in MiByte/s
system.mem_ctrls.avgRdBWSys                      0.00                       # Average system read bandwidth in MiByte/s
system.mem_ctrls.avgWrBWSys                      0.00                       # Average system write bandwidth in MiByte/s
system.mem_ctrls.peakBW                      12800.00                       # Theoretical peak bandwidth in MiByte/s
system.mem_ctrls.busUtil                         0.00                       # Data bus utilization in percentage
system.mem_ctrls.busUtilRead                     0.00                       # Data bus utilization in percentage for reads
system.mem_ctrls.busUtilWrite                    0.00                       # Data bus utilization in percentage for writes
system.mem_ctrls.avgRdQLen                       0.00                       # Average read queue length when enqueuing
system.mem_ctrls.avgWrQLen                       0.00                       # Average write queue length when enqueuing
system.mem_ctrls.readRowHits                        0                       # Number of row buffer hits during reads
system.mem_ctrls.writeRowHits                       0                       # Number of row buffer hits during writes
system.mem_ctrls.readRowHitRate                   nan                       # Row buffer hit rate for reads
system.mem_ctrls.writeRowHitRate                  nan                       # Row buffer hit rate for writes
system.mem_ctrls.avgGap                           nan                       # Average gap between requests
system.mem_ctrls.pageHitRate                      nan                       # Row buffer hit rate, read and write combined
system.mem_ctrls.memoryStateTime::IDLE   2980989833750                       # Time in different power states
system.mem_ctrls.memoryStateTime::REF    102980540000                       # Time in different power states
system.mem_ctrls.memoryStateTime::PRE_PDN            0                       # Time in different power states
system.mem_ctrls.memoryStateTime::ACT               0                       # Time in different power states
system.mem_ctrls.memoryStateTime::ACT_PDN            0                       # Time in different power states
system.mem_ctrls.actEnergy::0                       0                       # Energy for activate commands per rank (pJ)
system.mem_ctrls.actEnergy::1                       0                       # Energy for activate commands per rank (pJ)
system.mem_ctrls.preEnergy::0                       0                       # Energy for precharge commands per rank (pJ)
system.mem_ctrls.preEnergy::1                       0                       # Energy for precharge commands per rank (pJ)
system.mem_ctrls.readEnergy::0                      0                       # Energy for read commands per rank (pJ)
system.mem_ctrls.readEnergy::1                      0                       # Energy for read commands per rank (pJ)
system.mem_ctrls.writeEnergy::0                     0                       # Energy for write commands per rank (pJ)
system.mem_ctrls.writeEnergy::1                     0                       # Energy for write commands per rank (pJ)
system.mem_ctrls.refreshEnergy::0        201429936240                       # Energy for refresh commands per rank (pJ)
system.mem_ctrls.refreshEnergy::1        201429936240                       # Energy for refresh commands per rank (pJ)
system.mem_ctrls.actBackEnergy::0         66713566365                       # Energy for active background per rank (pJ)
system.mem_ctrls.actBackEnergy::1         66713566365                       # Energy for active background per rank (pJ)
system.mem_ctrls.preBackEnergy::0        1791861543750                       # Energy for precharge background per rank (pJ)
system.mem_ctrls.preBackEnergy::1        1791861543750                       # Energy for precharge background per rank (pJ)
system.mem_ctrls.totalEnergy::0          2060005046355                       # Total energy per rank (pJ)
system.mem_ctrls.totalEnergy::1          2060005046355                       # Total energy per rank (pJ)
system.mem_ctrls.averagePower::0           667.971740                       # Core power per rank (mW)
system.mem_ctrls.averagePower::1           667.971740                       # Core power per rank (mW)
system.membus.trans_dist::ReadReq             4036595                       # Transaction distribution
system.membus.trans_dist::ReadResp            4036595                       # Transaction distribution
system.membus.trans_dist::WriteReq              17820                       # Transaction distribution
system.membus.trans_dist::WriteResp             17820                       # Transaction distribution
system.membus.trans_dist::Writeback            441026                       # Transaction distribution
system.membus.trans_dist::WriteInvalidateReq        44256                       # Transaction distribution
system.membus.trans_dist::WriteInvalidateResp        44256                       # Transaction distribution
system.membus.trans_dist::UpgradeReq            51285                       # Transaction distribution
system.membus.trans_dist::SCUpgradeReq          27379                       # Transaction distribution
system.membus.trans_dist::UpgradeResp           78664                       # Transaction distribution
system.membus.trans_dist::ReadExReq            315360                       # Transaction distribution
system.membus.trans_dist::ReadExResp           315360                       # Transaction distribution
system.membus.pkt_count_system.iocache.mem_side::system.mem_ctrls.port        88930                       # Packet count per connected master and slave (bytes)
system.membus.pkt_count_system.iocache.mem_side::total        88930                       # Packet count per connected master and slave (bytes)
system.membus.pkt_count_system.cpu0.icache.mem_side::system.mem_ctrls.port      1739578                       # Packet count per connected master and slave (bytes)
system.membus.pkt_count_system.cpu0.icache.mem_side::total      1739578                       # Packet count per connected master and slave (bytes)
system.membus.pkt_count_system.cpu0.dcache.mem_side::system.bridge.slave        39882                       # Packet count per connected master and slave (bytes)
system.membus.pkt_count_system.cpu0.dcache.mem_side::system.mem_ctrls.port      5675045                       # Packet count per connected master and slave (bytes)
system.membus.pkt_count_system.cpu0.dcache.mem_side::total      5714927                       # Packet count per connected master and slave (bytes)
system.membus.pkt_count_system.cpu1.icache.mem_side::system.mem_ctrls.port      1230212                       # Packet count per connected master and slave (bytes)
system.membus.pkt_count_system.cpu1.icache.mem_side::total      1230212                       # Packet count per connected master and slave (bytes)
system.membus.pkt_count_system.cpu1.dcache.mem_side::system.bridge.slave        10326                       # Packet count per connected master and slave (bytes)
system.membus.pkt_count_system.cpu1.dcache.mem_side::system.mem_ctrls.port       642443                       # Packet count per connected master and slave (bytes)
system.membus.pkt_count_system.cpu1.dcache.mem_side::total       652769                       # Packet count per connected master and slave (bytes)
system.membus.pkt_count::total                9426416                       # Packet count per connected master and slave (bytes)
system.membus.pkt_size_system.iocache.mem_side::system.mem_ctrls.port      2845760                       # Cumulative packet size per connected master and slave (bytes)
system.membus.pkt_size_system.iocache.mem_side::total      2845760                       # Cumulative packet size per connected master and slave (bytes)
system.membus.pkt_size_system.cpu0.icache.mem_side::system.mem_ctrls.port     55666496                       # Cumulative packet size per connected master and slave (bytes)
system.membus.pkt_size_system.cpu0.icache.mem_side::total     55666496                       # Cumulative packet size per connected master and slave (bytes)
system.membus.pkt_size_system.cpu0.dcache.mem_side::system.bridge.slave        66134                       # Cumulative packet size per connected master and slave (bytes)
system.membus.pkt_size_system.cpu0.dcache.mem_side::system.mem_ctrls.port    189644608                       # Cumulative packet size per connected master and slave (bytes)
system.membus.pkt_size_system.cpu0.dcache.mem_side::total    189710742                       # Cumulative packet size per connected master and slave (bytes)
system.membus.pkt_size_system.cpu1.icache.mem_side::system.mem_ctrls.port     39366784                       # Cumulative packet size per connected master and slave (bytes)
system.membus.pkt_size_system.cpu1.icache.mem_side::total     39366784                       # Cumulative packet size per connected master and slave (bytes)
system.membus.pkt_size_system.cpu1.dcache.mem_side::system.bridge.slave        40479                       # Cumulative packet size per connected master and slave (bytes)
system.membus.pkt_size_system.cpu1.dcache.mem_side::system.mem_ctrls.port     21593344                       # Cumulative packet size per connected master and slave (bytes)
system.membus.pkt_size_system.cpu1.dcache.mem_side::total     21633823                       # Cumulative packet size per connected master and slave (bytes)
system.membus.pkt_size::total               309223605                       # Cumulative packet size per connected master and slave (bytes)
system.membus.snoops                                0                       # Total snoops (count)
system.membus.snoop_fanout::samples           4908617                       # Request fanout histogram
system.membus.snoop_fanout::mean                    4                       # Request fanout histogram
system.membus.snoop_fanout::stdev                   0                       # Request fanout histogram
system.membus.snoop_fanout::underflows              0      0.00%      0.00% # Request fanout histogram
system.membus.snoop_fanout::0                       0      0.00%      0.00% # Request fanout histogram
system.membus.snoop_fanout::1                       0      0.00%      0.00% # Request fanout histogram
system.membus.snoop_fanout::2                       0      0.00%      0.00% # Request fanout histogram
system.membus.snoop_fanout::3                       0      0.00%      0.00% # Request fanout histogram
system.membus.snoop_fanout::4                 4908617    100.00%    100.00% # Request fanout histogram
system.membus.snoop_fanout::5                       0      0.00%    100.00% # Request fanout histogram
system.membus.snoop_fanout::overflows               0      0.00%    100.00% # Request fanout histogram
system.membus.snoop_fanout::min_value               4                       # Request fanout histogram
system.membus.snoop_fanout::max_value               4                       # Request fanout histogram
system.membus.snoop_fanout::total             4908617                       # Request fanout histogram
system.iocache.tags.replacements                44428                       # number of replacements
system.iocache.tags.tagsinuse                0.751979                       # Cycle average of tags in use
system.iocache.tags.total_refs                      0                       # Total number of references to valid blocks.
system.iocache.tags.sampled_refs                44428                       # Sample count of references to valid blocks.
system.iocache.tags.avg_refs                        0                       # Average number of references to valid blocks.
system.iocache.tags.warmup_cycle         2933852860017                       # Cycle when the warmup percentage was hit.
system.iocache.tags.occ_blocks::tsunami.ide     0.751979                       # Average occupied blocks per requestor
system.iocache.tags.occ_percent::tsunami.ide     0.046999                       # Average percentage of cache occupancy
system.iocache.tags.occ_percent::total       0.046999                       # Average percentage of cache occupancy
system.iocache.tags.occ_task_id_blocks::1023           16                       # Occupied blocks per task id
system.iocache.tags.age_task_id_blocks_1023::4           16                       # Occupied blocks per task id
system.iocache.tags.occ_task_id_percent::1023            1                       # Percentage of cache occupancy per task id
system.iocache.tags.tag_accesses               400185                       # Number of tag accesses
system.iocache.tags.data_accesses              400185                       # Number of data accesses
system.iocache.WriteInvalidateReq_hits::tsunami.ide        44256                       # number of WriteInvalidateReq hits
system.iocache.WriteInvalidateReq_hits::total        44256                       # number of WriteInvalidateReq hits
system.iocache.ReadReq_misses::tsunami.ide          209                       # number of ReadReq misses
system.iocache.ReadReq_misses::total              209                       # number of ReadReq misses
system.iocache.demand_misses::tsunami.ide          209                       # number of demand (read+write) misses
system.iocache.demand_misses::total               209                       # number of demand (read+write) misses
system.iocache.overall_misses::tsunami.ide          209                       # number of overall misses
system.iocache.overall_misses::total              209                       # number of overall misses
system.iocache.ReadReq_accesses::tsunami.ide          209                       # number of ReadReq accesses(hits+misses)
system.iocache.ReadReq_accesses::total            209                       # number of ReadReq accesses(hits+misses)
system.iocache.WriteInvalidateReq_accesses::tsunami.ide        44256                       # number of WriteInvalidateReq accesses(hits+misses)
system.iocache.WriteInvalidateReq_accesses::total        44256                       # number of WriteInvalidateReq accesses(hits+misses)
system.iocache.demand_accesses::tsunami.ide          209                       # number of demand (read+write) accesses
system.iocache.demand_accesses::total             209                       # number of demand (read+write) accesses
system.iocache.overall_accesses::tsunami.ide          209                       # number of overall (read+write) accesses
system.iocache.overall_accesses::total            209                       # number of overall (read+write) accesses
system.iocache.ReadReq_miss_rate::tsunami.ide            1                       # miss rate for ReadReq accesses
system.iocache.ReadReq_miss_rate::total             1                       # miss rate for ReadReq accesses
system.iocache.demand_miss_rate::tsunami.ide            1                       # miss rate for demand accesses
system.iocache.demand_miss_rate::total              1                       # miss rate for demand accesses
system.iocache.overall_miss_rate::tsunami.ide            1                       # miss rate for overall accesses
system.iocache.overall_miss_rate::total             1                       # miss rate for overall accesses
system.iocache.blocked_cycles::no_mshrs             0                       # number of cycles access was blocked
system.iocache.blocked_cycles::no_targets            0                       # number of cycles access was blocked
system.iocache.blocked::no_mshrs                    0                       # number of cycles access was blocked
system.iocache.blocked::no_targets                  0                       # number of cycles access was blocked
system.iocache.avg_blocked_cycles::no_mshrs          nan                       # average number of cycles each access was blocked
system.iocache.avg_blocked_cycles::no_targets          nan                       # average number of cycles each access was blocked
system.iocache.fast_writes                      44256                       # number of fast writes performed
system.iocache.cache_copies                         0                       # number of cache copies performed
system.iocache.no_allocate_misses                   0                       # Number of misses that were no-allocate
system.disk0.dma_read_full_pages                    0                       # Number of full page size DMA reads (not PRD).
system.disk0.dma_read_bytes                      4096                       # Number of bytes transfered via DMA reads (not PRD).
system.disk0.dma_read_txs                           1                       # Number of DMA read transactions (not PRD).
system.disk0.dma_write_full_pages                 326                       # Number of full page size DMA writes.
system.disk0.dma_write_bytes                  2824192                       # Number of bytes transfered via DMA writes.
system.disk0.dma_write_txs                        365                       # Number of DMA write transactions.
system.disk2.dma_read_full_pages                    0                       # Number of full page size DMA reads (not PRD).
system.disk2.dma_read_bytes                         0                       # Number of bytes transfered via DMA reads (not PRD).
system.disk2.dma_read_txs                           0                       # Number of DMA read transactions (not PRD).
system.disk2.dma_write_full_pages                   1                       # Number of full page size DMA writes.
system.disk2.dma_write_bytes                     8192                       # Number of bytes transfered via DMA writes.
system.disk2.dma_write_txs                          1                       # Number of DMA write transactions.
system.cpu_voltage_domain.voltage                   1                       # Voltage in Volts
system.cpu_clk_domain.clock                     10000                       # Clock period in ticks
system.cpu0.dtb.fetch_hits                          0                       # ITB hits
system.cpu0.dtb.fetch_misses                        0                       # ITB misses
system.cpu0.dtb.fetch_acv                           0                       # ITB acv
system.cpu0.dtb.fetch_accesses                      0                       # ITB accesses
system.cpu0.dtb.read_hits                    13116647                       # DTB read hits
system.cpu0.dtb.read_misses                      7133                       # DTB read misses
system.cpu0.dtb.read_acv                           26                       # DTB read access violations
system.cpu0.dtb.read_accesses                  576231                       # DTB read accesses
system.cpu0.dtb.write_hits                    6021748                       # DTB write hits
system.cpu0.dtb.write_misses                      748                       # DTB write misses
system.cpu0.dtb.write_acv                         100                       # DTB write access violations
system.cpu0.dtb.write_accesses                 214912                       # DTB write accesses
system.cpu0.dtb.data_hits                    19138395                       # DTB hits
system.cpu0.dtb.data_misses                      7881                       # DTB misses
system.cpu0.dtb.data_acv                          126                       # DTB access violations
system.cpu0.dtb.data_accesses                  791143                       # DTB accesses
system.cpu0.itb.fetch_hits                    3961549                       # ITB hits
system.cpu0.itb.fetch_misses                     3677                       # ITB misses
system.cpu0.itb.fetch_acv                           1                       # ITB acv
system.cpu0.itb.fetch_accesses                3965226                       # ITB accesses
system.cpu0.itb.read_hits                           0                       # DTB read hits
system.cpu0.itb.read_misses                         0                       # DTB read misses
system.cpu0.itb.read_acv                            0                       # DTB read access violations
system.cpu0.itb.read_accesses                       0                       # DTB read accesses
system.cpu0.itb.write_hits                          0                       # DTB write hits
system.cpu0.itb.write_misses                        0                       # DTB write misses
system.cpu0.itb.write_acv                           0                       # DTB write access violations
system.cpu0.itb.write_accesses                      0                       # DTB write accesses
system.cpu0.itb.data_hits                           0                       # DTB hits
system.cpu0.itb.data_misses                         0                       # DTB misses
system.cpu0.itb.data_acv                            0                       # DTB access violations
system.cpu0.itb.data_accesses                       0                       # DTB accesses
system.cpu0.numCycles                       308310891                       # number of cpu cycles simulated
system.cpu0.numWorkItemsStarted                     0                       # number of work items this cpu started
system.cpu0.numWorkItemsCompleted                   0                       # number of work items this cpu completed
system.cpu0.committedInsts                   76687899                       # Number of instructions committed
system.cpu0.committedOps                     76687899                       # Number of ops (including micro ops) committed
system.cpu0.num_int_alu_accesses             74193057                       # Number of integer alu accesses
system.cpu0.num_fp_alu_accesses                227279                       # Number of float alu accesses
system.cpu0.num_func_calls                    2376674                       # number of times a function call or return occured
system.cpu0.num_conditional_control_insts     10056270                       # number of instructions that are conditional controls
system.cpu0.num_int_insts                    74193057                       # number of integer instructions
system.cpu0.num_fp_insts                       227279                       # number of float instructions
system.cpu0.num_int_register_reads          101727457                       # number of times the integer registers were read
system.cpu0.num_int_register_writes          57114741                       # number of times the integer registers were written
system.cpu0.num_fp_register_reads               94774                       # number of times the floating registers were read
system.cpu0.num_fp_register_writes              95947                       # number of times the floating registers were written
system.cpu0.num_mem_refs                     19175513                       # number of memory refs
system.cpu0.num_load_insts                   13140239                       # Number of load instructions
system.cpu0.num_store_insts                   6035274                       # Number of store instructions
system.cpu0.num_idle_cycles              231639873.393399                       # Number of idle cycles
system.cpu0.num_busy_cycles              76671017.606601                       # Number of busy cycles
system.cpu0.not_idle_fraction                0.248681                       # Percentage of non-idle cycles
system.cpu0.idle_fraction                    0.751319                       # Percentage of idle cycles
system.cpu0.Branches                         12922560                       # Number of branches fetched
system.cpu0.op_class::No_OpClass              1484530      1.94%      1.94% # Class of executed instruction
system.cpu0.op_class::IntAlu                 54736530     71.37%     73.30% # Class of executed instruction
system.cpu0.op_class::IntMult                  129891      0.17%     73.47% # Class of executed instruction
system.cpu0.op_class::IntDiv                        0      0.00%     73.47% # Class of executed instruction
system.cpu0.op_class::FloatAdd                  68165      0.09%     73.56% # Class of executed instruction
system.cpu0.op_class::FloatCmp                      0      0.00%     73.56% # Class of executed instruction
system.cpu0.op_class::FloatCvt                      0      0.00%     73.56% # Class of executed instruction
system.cpu0.op_class::FloatMult                     0      0.00%     73.56% # Class of executed instruction
system.cpu0.op_class::FloatDiv                   2779      0.00%     73.57% # Class of executed instruction
system.cpu0.op_class::FloatSqrt                     0      0.00%     73.57% # Class of executed instruction
system.cpu0.op_class::SimdAdd                       0      0.00%     73.57% # Class of executed instruction
system.cpu0.op_class::SimdAddAcc                    0      0.00%     73.57% # Class of executed instruction
system.cpu0.op_class::SimdAlu                       0      0.00%     73.57% # Class of executed instruction
system.cpu0.op_class::SimdCmp                       0      0.00%     73.57% # Class of executed instruction
system.cpu0.op_class::SimdCvt                       0      0.00%     73.57% # Class of executed instruction
system.cpu0.op_class::SimdMisc                      0      0.00%     73.57% # Class of executed instruction
system.cpu0.op_class::SimdMult                      0      0.00%     73.57% # Class of executed instruction
system.cpu0.op_class::SimdMultAcc                   0      0.00%     73.57% # Class of executed instruction
system.cpu0.op_class::SimdShift                     0      0.00%     73.57% # Class of executed instruction
system.cpu0.op_class::SimdShiftAcc                  0      0.00%     73.57% # Class of executed instruction
system.cpu0.op_class::SimdSqrt                      0      0.00%     73.57% # Class of executed instruction
system.cpu0.op_class::SimdFloatAdd                  0      0.00%     73.57% # Class of executed instruction
system.cpu0.op_class::SimdFloatAlu                  0      0.00%     73.57% # Class of executed instruction
system.cpu0.op_class::SimdFloatCmp                  0      0.00%     73.57% # Class of executed instruction
system.cpu0.op_class::SimdFloatCvt                  0      0.00%     73.57% # Class of executed instruction
system.cpu0.op_class::SimdFloatDiv                  0      0.00%     73.57% # Class of executed instruction
system.cpu0.op_class::SimdFloatMisc                 0      0.00%     73.57% # Class of executed instruction
system.cpu0.op_class::SimdFloatMult                 0      0.00%     73.57% # Class of executed instruction
system.cpu0.op_class::SimdFloatMultAcc              0      0.00%     73.57% # Class of executed instruction
system.cpu0.op_class::SimdFloatSqrt                 0      0.00%     73.57% # Class of executed instruction
system.cpu0.op_class::MemRead                13444537     17.53%     91.10% # Class of executed instruction
system.cpu0.op_class::MemWrite                6056105      7.90%     98.99% # Class of executed instruction
system.cpu0.op_class::IprAccess                773369      1.01%    100.00% # Class of executed instruction
system.cpu0.op_class::InstPrefetch                  0      0.00%    100.00% # Class of executed instruction
system.cpu0.op_class::total                  76695906                       # Class of executed instruction
system.cpu0.kern.inst.arm                           0                       # number of arm instructions executed
system.cpu0.kern.inst.quiesce                    7973                       # number of quiesce instructions executed
system.cpu0.kern.inst.hwrei                    173642                       # number of hwrei instructions executed
system.cpu0.kern.ipl_count::0                   55804     37.01%     37.01% # number of times we switched to this ipl
system.cpu0.kern.ipl_count::21                    119      0.08%     37.09% # number of times we switched to this ipl
system.cpu0.kern.ipl_count::22                   3043      2.02%     39.11% # number of times we switched to this ipl
system.cpu0.kern.ipl_count::30                    759      0.50%     39.61% # number of times we switched to this ipl
system.cpu0.kern.ipl_count::31                  91039     60.39%    100.00% # number of times we switched to this ipl
system.cpu0.kern.ipl_count::total              150764                       # number of times we switched to this ipl
system.cpu0.kern.ipl_good::0                    55534     48.61%     48.61% # number of times we switched to this ipl from a different ipl
system.cpu0.kern.ipl_good::21                     119      0.10%     48.72% # number of times we switched to this ipl from a different ipl
system.cpu0.kern.ipl_good::22                    3043      2.66%     51.38% # number of times we switched to this ipl from a different ipl
system.cpu0.kern.ipl_good::30                     759      0.66%     52.05% # number of times we switched to this ipl from a different ipl
system.cpu0.kern.ipl_good::31                   54778     47.95%    100.00% # number of times we switched to this ipl from a different ipl
system.cpu0.kern.ipl_good::total               114233                       # number of times we switched to this ipl from a different ipl
system.cpu0.kern.ipl_ticks::0            2827507210000     91.71%     91.71% # number of cycles we spent at this ipl
system.cpu0.kern.ipl_ticks::21              170240000      0.01%     91.72% # number of cycles we spent at this ipl
system.cpu0.kern.ipl_ticks::22             2980800000      0.10%     91.81% # number of cycles we spent at this ipl
system.cpu0.kern.ipl_ticks::30             1705630000      0.06%     91.87% # number of cycles we spent at this ipl
system.cpu0.kern.ipl_ticks::31           250665180000      8.13%    100.00% # number of cycles we spent at this ipl
system.cpu0.kern.ipl_ticks::total        3083029060000                       # number of cycles we spent at this ipl
system.cpu0.kern.ipl_used::0                 0.995162                       # fraction of swpipl calls that actually changed the ipl
system.cpu0.kern.ipl_used::21                       1                       # fraction of swpipl calls that actually changed the ipl
system.cpu0.kern.ipl_used::22                       1                       # fraction of swpipl calls that actually changed the ipl
system.cpu0.kern.ipl_used::30                       1                       # fraction of swpipl calls that actually changed the ipl
system.cpu0.kern.ipl_used::31                0.601698                       # fraction of swpipl calls that actually changed the ipl
system.cpu0.kern.ipl_used::total             0.757694                       # fraction of swpipl calls that actually changed the ipl
system.cpu0.kern.syscall::2                         6      2.55%      2.55% # number of syscalls executed
system.cpu0.kern.syscall::3                        23      9.79%     12.34% # number of syscalls executed
system.cpu0.kern.syscall::4                         4      1.70%     14.04% # number of syscalls executed
system.cpu0.kern.syscall::6                        27     11.49%     25.53% # number of syscalls executed
system.cpu0.kern.syscall::12                        1      0.43%     25.96% # number of syscalls executed
system.cpu0.kern.syscall::15                        1      0.43%     26.38% # number of syscalls executed
system.cpu0.kern.syscall::17                       11      4.68%     31.06% # number of syscalls executed
system.cpu0.kern.syscall::19                        7      2.98%     34.04% # number of syscalls executed
system.cpu0.kern.syscall::20                        4      1.70%     35.74% # number of syscalls executed
system.cpu0.kern.syscall::23                        3      1.28%     37.02% # number of syscalls executed
system.cpu0.kern.syscall::24                        5      2.13%     39.15% # number of syscalls executed
system.cpu0.kern.syscall::33                        9      3.83%     42.98% # number of syscalls executed
system.cpu0.kern.syscall::45                       42     17.87%     60.85% # number of syscalls executed
system.cpu0.kern.syscall::47                        5      2.13%     62.98% # number of syscalls executed
system.cpu0.kern.syscall::48                        4      1.70%     64.68% # number of syscalls executed
system.cpu0.kern.syscall::54                        6      2.55%     67.23% # number of syscalls executed
system.cpu0.kern.syscall::58                        1      0.43%     67.66% # number of syscalls executed
system.cpu0.kern.syscall::59                        3      1.28%     68.94% # number of syscalls executed
system.cpu0.kern.syscall::71                       41     17.45%     86.38% # number of syscalls executed
system.cpu0.kern.syscall::73                        3      1.28%     87.66% # number of syscalls executed
system.cpu0.kern.syscall::74                       12      5.11%     92.77% # number of syscalls executed
system.cpu0.kern.syscall::87                        1      0.43%     93.19% # number of syscalls executed
system.cpu0.kern.syscall::90                        1      0.43%     93.62% # number of syscalls executed
system.cpu0.kern.syscall::92                        6      2.55%     96.17% # number of syscalls executed
system.cpu0.kern.syscall::97                        2      0.85%     97.02% # number of syscalls executed
system.cpu0.kern.syscall::98                        2      0.85%     97.87% # number of syscalls executed
system.cpu0.kern.syscall::132                       3      1.28%     99.15% # number of syscalls executed
system.cpu0.kern.syscall::144                       1      0.43%     99.57% # number of syscalls executed
system.cpu0.kern.syscall::147                       1      0.43%    100.00% # number of syscalls executed
system.cpu0.kern.syscall::total                   235                       # number of syscalls executed
system.cpu0.kern.callpal::cserve                    1      0.00%      0.00% # number of callpals executed
system.cpu0.kern.callpal::wripir                 1073      0.68%      0.68% # number of callpals executed
system.cpu0.kern.callpal::wrmces                    1      0.00%      0.68% # number of callpals executed
system.cpu0.kern.callpal::wrfen                     1      0.00%      0.68% # number of callpals executed
system.cpu0.kern.callpal::wrvptptr                  1      0.00%      0.68% # number of callpals executed
system.cpu0.kern.callpal::swpctx                 2601      1.65%      2.33% # number of callpals executed
system.cpu0.kern.callpal::tbi                      31      0.02%      2.35% # number of callpals executed
system.cpu0.kern.callpal::wrent                     7      0.00%      2.35% # number of callpals executed
system.cpu0.kern.callpal::swpipl               141583     89.59%     91.94% # number of callpals executed
system.cpu0.kern.callpal::rdps                   6956      4.40%     96.34% # number of callpals executed
system.cpu0.kern.callpal::wrkgp                     1      0.00%     96.34% # number of callpals executed
system.cpu0.kern.callpal::wrusp                     5      0.00%     96.35% # number of callpals executed
system.cpu0.kern.callpal::rdusp                     8      0.01%     96.35% # number of callpals executed
system.cpu0.kern.callpal::whami                     2      0.00%     96.35% # number of callpals executed
system.cpu0.kern.callpal::rti                    5262      3.33%     99.68% # number of callpals executed
system.cpu0.kern.callpal::callsys                 354      0.22%     99.91% # number of callpals executed
system.cpu0.kern.callpal::imb                     150      0.09%    100.00% # number of callpals executed
system.cpu0.kern.callpal::total                158037                       # number of callpals executed
system.cpu0.kern.mode_switch::kernel             7623                       # number of protection mode switches
system.cpu0.kern.mode_switch::user               1108                       # number of protection mode switches
system.cpu0.kern.mode_switch::idle                  0                       # number of protection mode switches
system.cpu0.kern.mode_good::kernel               1108                      
system.cpu0.kern.mode_good::user                 1108                      
system.cpu0.kern.mode_good::idle                    0                      
system.cpu0.kern.mode_switch_good::kernel     0.145350                       # fraction of useful protection mode switches
system.cpu0.kern.mode_switch_good::user             1                       # fraction of useful protection mode switches
system.cpu0.kern.mode_switch_good::idle           nan                       # fraction of useful protection mode switches
system.cpu0.kern.mode_switch_good::total     0.253808                       # fraction of useful protection mode switches
system.cpu0.kern.mode_ticks::kernel      3057479020000     99.29%     99.29% # number of ticks spent at the given mode
system.cpu0.kern.mode_ticks::user         21798290000      0.71%    100.00% # number of ticks spent at the given mode
system.cpu0.kern.mode_ticks::idle                   0      0.00%    100.00% # number of ticks spent at the given mode
system.cpu0.kern.swap_context                    2602                       # number of times the context was actually changed
system.tsunami.ethernet.descDMAReads                0                       # Number of descriptors the device read w/ DMA
system.tsunami.ethernet.descDMAWrites               0                       # Number of descriptors the device wrote w/ DMA
system.tsunami.ethernet.descDmaReadBytes            0                       # number of descriptor bytes read w/ DMA
system.tsunami.ethernet.descDmaWriteBytes            0                       # number of descriptor bytes write w/ DMA
system.tsunami.ethernet.postedSwi                   0                       # number of software interrupts posted to CPU
system.tsunami.ethernet.coalescedSwi              nan                       # average number of Swi's coalesced into each post
system.tsunami.ethernet.totalSwi                    0                       # total number of Swi written to ISR
system.tsunami.ethernet.postedRxIdle                0                       # number of rxIdle interrupts posted to CPU
system.tsunami.ethernet.coalescedRxIdle           nan                       # average number of RxIdle's coalesced into each post
system.tsunami.ethernet.totalRxIdle                 0                       # total number of RxIdle written to ISR
system.tsunami.ethernet.postedRxOk                  0                       # number of RxOk interrupts posted to CPU
system.tsunami.ethernet.coalescedRxOk             nan                       # average number of RxOk's coalesced into each post
system.tsunami.ethernet.totalRxOk                   0                       # total number of RxOk written to ISR
system.tsunami.ethernet.postedRxDesc                0                       # number of RxDesc interrupts posted to CPU
system.tsunami.ethernet.coalescedRxDesc           nan                       # average number of RxDesc's coalesced into each post
system.tsunami.ethernet.totalRxDesc                 0                       # total number of RxDesc written to ISR
system.tsunami.ethernet.postedTxOk                  0                       # number of TxOk interrupts posted to CPU
system.tsunami.ethernet.coalescedTxOk             nan                       # average number of TxOk's coalesced into each post
system.tsunami.ethernet.totalTxOk                   0                       # total number of TxOk written to ISR
system.tsunami.ethernet.postedTxIdle                0                       # number of TxIdle interrupts posted to CPU
system.tsunami.ethernet.coalescedTxIdle           nan                       # average number of TxIdle's coalesced into each post
system.tsunami.ethernet.totalTxIdle                 0                       # total number of TxIdle written to ISR
system.tsunami.ethernet.postedTxDesc                0                       # number of TxDesc interrupts posted to CPU
system.tsunami.ethernet.coalescedTxDesc           nan                       # average number of TxDesc's coalesced into each post
system.tsunami.ethernet.totalTxDesc                 0                       # total number of TxDesc written to ISR
system.tsunami.ethernet.postedRxOrn                 0                       # number of RxOrn posted to CPU
system.tsunami.ethernet.coalescedRxOrn            nan                       # average number of RxOrn's coalesced into each post
system.tsunami.ethernet.totalRxOrn                  0                       # total number of RxOrn written to ISR
system.tsunami.ethernet.coalescedTotal            nan                       # average number of interrupts coalesced into each post
system.tsunami.ethernet.postedInterrupts            0                       # number of posts to CPU
system.tsunami.ethernet.droppedPackets              0                       # number of packets dropped
system.iobus.trans_dist::ReadReq                 7493                       # Transaction distribution
system.iobus.trans_dist::ReadResp                7493                       # Transaction distribution
system.iobus.trans_dist::WriteReq               62076                       # Transaction distribution
system.iobus.trans_dist::WriteResp              17820                       # Transaction distribution
system.iobus.trans_dist::WriteInvalidateResp        44256                       # Transaction distribution
system.iobus.pkt_count_system.bridge.master::system.tsunami.cchip.pio        20046                       # Packet count per connected master and slave (bytes)
system.iobus.pkt_count_system.bridge.master::system.tsunami.pchip.pio          292                       # Packet count per connected master and slave (bytes)
system.iobus.pkt_count_system.bridge.master::system.tsunami.fake_sm_chip.pio           20                       # Packet count per connected master and slave (bytes)
system.iobus.pkt_count_system.bridge.master::system.tsunami.fake_uart4.pio           20                       # Packet count per connected master and slave (bytes)
system.iobus.pkt_count_system.bridge.master::system.tsunami.fake_ata0.pio           22                       # Packet count per connected master and slave (bytes)
system.iobus.pkt_count_system.bridge.master::system.tsunami.fake_ata1.pio           22                       # Packet count per connected master and slave (bytes)
system.iobus.pkt_count_system.bridge.master::system.tsunami.io.pio          232                       # Packet count per connected master and slave (bytes)
system.iobus.pkt_count_system.bridge.master::system.tsunami.uart.pio        20514                       # Packet count per connected master and slave (bytes)
system.iobus.pkt_count_system.bridge.master::system.tsunami.backdoor.pio         2492                       # Packet count per connected master and slave (bytes)
system.iobus.pkt_count_system.bridge.master::system.tsunami.ide.pio         5908                       # Packet count per connected master and slave (bytes)
system.iobus.pkt_count_system.bridge.master::system.tsunami.ide-pciconf          284                       # Packet count per connected master and slave (bytes)
system.iobus.pkt_count_system.bridge.master::system.tsunami.ethernet.pio          100                       # Packet count per connected master and slave (bytes)
system.iobus.pkt_count_system.bridge.master::system.tsunami.ethernet-pciconf          196                       # Packet count per connected master and slave (bytes)
system.iobus.pkt_count_system.bridge.master::system.tsunami.pciconfig.pio           60                       # Packet count per connected master and slave (bytes)
system.iobus.pkt_count_system.bridge.master::total        50208                       # Packet count per connected master and slave (bytes)
system.iobus.pkt_count_system.tsunami.ide.dma::system.iocache.cpu_side        88930                       # Packet count per connected master and slave (bytes)
system.iobus.pkt_count_system.tsunami.ide.dma::total        88930                       # Packet count per connected master and slave (bytes)
system.iobus.pkt_count::total                  139138                       # Packet count per connected master and slave (bytes)
system.iobus.pkt_size_system.bridge.master::system.tsunami.cchip.pio        80184                       # Cumulative packet size per connected master and slave (bytes)
system.iobus.pkt_size_system.bridge.master::system.tsunami.pchip.pio         1168                       # Cumulative packet size per connected master and slave (bytes)
system.iobus.pkt_size_system.bridge.master::system.tsunami.fake_sm_chip.pio           10                       # Cumulative packet size per connected master and slave (bytes)
system.iobus.pkt_size_system.bridge.master::system.tsunami.fake_uart4.pio           10                       # Cumulative packet size per connected master and slave (bytes)
system.iobus.pkt_size_system.bridge.master::system.tsunami.fake_ata0.pio           11                       # Cumulative packet size per connected master and slave (bytes)
system.iobus.pkt_size_system.bridge.master::system.tsunami.fake_ata1.pio           11                       # Cumulative packet size per connected master and slave (bytes)
system.iobus.pkt_size_system.bridge.master::system.tsunami.io.pio          235                       # Cumulative packet size per connected master and slave (bytes)
system.iobus.pkt_size_system.bridge.master::system.tsunami.uart.pio        10257                       # Cumulative packet size per connected master and slave (bytes)
system.iobus.pkt_size_system.bridge.master::system.tsunami.backdoor.pio         9948                       # Cumulative packet size per connected master and slave (bytes)
system.iobus.pkt_size_system.bridge.master::system.tsunami.ide.pio         3748                       # Cumulative packet size per connected master and slave (bytes)
system.iobus.pkt_size_system.bridge.master::system.tsunami.ide-pciconf          400                       # Cumulative packet size per connected master and slave (bytes)
system.iobus.pkt_size_system.bridge.master::system.tsunami.ethernet.pio          200                       # Cumulative packet size per connected master and slave (bytes)
system.iobus.pkt_size_system.bridge.master::system.tsunami.ethernet-pciconf          311                       # Cumulative packet size per connected master and slave (bytes)
system.iobus.pkt_size_system.bridge.master::system.tsunami.pciconfig.pio          120                       # Cumulative packet size per connected master and slave (bytes)
system.iobus.pkt_size_system.bridge.master::total       106613                       # Cumulative packet size per connected master and slave (bytes)
system.iobus.pkt_size_system.tsunami.ide.dma::system.iocache.cpu_side      2837640                       # Cumulative packet size per connected master and slave (bytes)
system.iobus.pkt_size_system.tsunami.ide.dma::total      2837640                       # Cumulative packet size per connected master and slave (bytes)
system.iobus.pkt_size::total                  2944253                       # Cumulative packet size per connected master and slave (bytes)
system.cpu0.icache.tags.replacements           869135                       # number of replacements
system.cpu0.icache.tags.tagsinuse          506.565342                       # Cycle average of tags in use
system.cpu0.icache.tags.total_refs           75775687                       # Total number of references to valid blocks.
system.cpu0.icache.tags.sampled_refs           869135                       # Sample count of references to valid blocks.
system.cpu0.icache.tags.avg_refs            87.185175                       # Average number of references to valid blocks.
system.cpu0.icache.tags.warmup_cycle     160100290000                       # Cycle when the warmup percentage was hit.
system.cpu0.icache.tags.occ_blocks::cpu0.inst   506.565342                       # Average occupied blocks per requestor
system.cpu0.icache.tags.occ_percent::cpu0.inst     0.989385                       # Average percentage of cache occupancy
system.cpu0.icache.tags.occ_percent::total     0.989385                       # Average percentage of cache occupancy
system.cpu0.icache.tags.occ_task_id_blocks::1024          512                       # Occupied blocks per task id
system.cpu0.icache.tags.age_task_id_blocks_1024::2            9                       # Occupied blocks per task id
system.cpu0.icache.tags.age_task_id_blocks_1024::3          458                       # Occupied blocks per task id
system.cpu0.icache.tags.age_task_id_blocks_1024::4           45                       # Occupied blocks per task id
system.cpu0.icache.tags.occ_task_id_percent::1024            1                       # Percentage of cache occupancy per task id
system.cpu0.icache.tags.tag_accesses        154261601                       # Number of tag accesses
system.cpu0.icache.tags.data_accesses       154261601                       # Number of data accesses
system.cpu0.icache.ReadReq_hits::cpu0.inst     75826117                       # number of ReadReq hits
system.cpu0.icache.ReadReq_hits::total       75826117                       # number of ReadReq hits
system.cpu0.icache.demand_hits::cpu0.inst     75826117                       # number of demand (read+write) hits
system.cpu0.icache.demand_hits::total        75826117                       # number of demand (read+write) hits
system.cpu0.icache.overall_hits::cpu0.inst     75826117                       # number of overall hits
system.cpu0.icache.overall_hits::total       75826117                       # number of overall hits
system.cpu0.icache.ReadReq_misses::cpu0.inst       869789                       # number of ReadReq misses
system.cpu0.icache.ReadReq_misses::total       869789                       # number of ReadReq misses
system.cpu0.icache.demand_misses::cpu0.inst       869789                       # number of demand (read+write) misses
system.cpu0.icache.demand_misses::total        869789                       # number of demand (read+write) misses
system.cpu0.icache.overall_misses::cpu0.inst       869789                       # number of overall misses
system.cpu0.icache.overall_misses::total       869789                       # number of overall misses
system.cpu0.icache.ReadReq_accesses::cpu0.inst     76695906                       # number of ReadReq accesses(hits+misses)
system.cpu0.icache.ReadReq_accesses::total     76695906                       # number of ReadReq accesses(hits+misses)
system.cpu0.icache.demand_accesses::cpu0.inst     76695906                       # number of demand (read+write) accesses
system.cpu0.icache.demand_accesses::total     76695906                       # number of demand (read+write) accesses
system.cpu0.icache.overall_accesses::cpu0.inst     76695906                       # number of overall (read+write) accesses
system.cpu0.icache.overall_accesses::total     76695906                       # number of overall (read+write) accesses
system.cpu0.icache.ReadReq_miss_rate::cpu0.inst     0.011341                       # miss rate for ReadReq accesses
system.cpu0.icache.ReadReq_miss_rate::total     0.011341                       # miss rate for ReadReq accesses
system.cpu0.icache.demand_miss_rate::cpu0.inst     0.011341                       # miss rate for demand accesses
system.cpu0.icache.demand_miss_rate::total     0.011341                       # miss rate for demand accesses
system.cpu0.icache.overall_miss_rate::cpu0.inst     0.011341                       # miss rate for overall accesses
system.cpu0.icache.overall_miss_rate::total     0.011341                       # miss rate for overall accesses
system.cpu0.icache.blocked_cycles::no_mshrs            0                       # number of cycles access was blocked
system.cpu0.icache.blocked_cycles::no_targets            0                       # number of cycles access was blocked
system.cpu0.icache.blocked::no_mshrs                0                       # number of cycles access was blocked
system.cpu0.icache.blocked::no_targets              0                       # number of cycles access was blocked
system.cpu0.icache.avg_blocked_cycles::no_mshrs          nan                       # average number of cycles each access was blocked
system.cpu0.icache.avg_blocked_cycles::no_targets          nan                       # average number of cycles each access was blocked
system.cpu0.icache.fast_writes                      0                       # number of fast writes performed
system.cpu0.icache.cache_copies                     0                       # number of cache copies performed
system.cpu0.icache.no_allocate_misses               0                       # Number of misses that were no-allocate
system.cpu0.dcache.tags.replacements          2584838                       # number of replacements
system.cpu0.dcache.tags.tagsinuse         1011.526223                       # Cycle average of tags in use
system.cpu0.dcache.tags.total_refs           16463845                       # Total number of references to valid blocks.
system.cpu0.dcache.tags.sampled_refs          2584838                       # Sample count of references to valid blocks.
system.cpu0.dcache.tags.avg_refs             6.369391                       # Average number of references to valid blocks.
[...]
system.cpu1.kern.inst.quiesce                       9                       # number of quiesce instructions executed
system.cpu1.kern.inst.hwrei                       925                       # number of hwrei instructions executed
system.cpu1.kern.ipl_count::0                     126     38.65%     38.65% # number of times we switched to this ipl
system.cpu1.kern.ipl_count::22                      8      2.45%     41.10% # number of times we switched to this ipl
system.cpu1.kern.ipl_count::30                      2      0.61%     41.72% # number of times we switched to this ipl
system.cpu1.kern.ipl_count::31                    190     58.28%    100.00% # number of times we switched to this ipl
system.cpu1.kern.ipl_count::total                 326                       # number of times we switched to this ipl
system.cpu1.kern.ipl_good::0                      126     48.46%     48.46% # number of times we switched to this ipl from a different ipl
system.cpu1.kern.ipl_good::22                       8      3.08%     51.54% # number of times we switched to this ipl from a different ipl
system.cpu1.kern.ipl_good::30                       2      0.77%     52.31% # number of times we switched to this ipl from a different ipl
system.cpu1.kern.ipl_good::31                     124     47.69%    100.00% # number of times we switched to this ipl from a different ipl
system.cpu1.kern.ipl_good::total                  260                       # number of times we switched to this ipl from a different ipl
system.cpu1.kern.ipl_ticks::0              7601820000     97.34%     97.34% # number of cycles we spent at this ipl
system.cpu1.kern.ipl_ticks::22                7840000      0.10%     97.44% # number of cycles we spent at this ipl
system.cpu1.kern.ipl_ticks::30                6600000      0.08%     97.52% # number of cycles we spent at this ipl
system.cpu1.kern.ipl_ticks::31              193630000      2.48%    100.00% # number of cycles we spent at this ipl
system.cpu1.kern.ipl_ticks::total          7809890000                       # number of cycles we spent at this ipl
system.cpu1.kern.ipl_used::0                        1                       # fraction of swpipl calls that actually changed the ipl
system.cpu1.kern.ipl_used::22                       1                       # fraction of swpipl calls that actually changed the ipl
system.cpu1.kern.ipl_used::30                       1                       # fraction of swpipl calls that actually changed the ipl
system.cpu1.kern.ipl_used::31                0.652632                       # fraction of swpipl calls that actually changed the ipl
system.cpu1.kern.ipl_used::total             0.797546                       # fraction of swpipl calls that actually changed the ipl
system.cpu1.kern.syscall::6                         1     33.33%     33.33% # number of syscalls executed
system.cpu1.kern.syscall::48                        1     33.33%     66.67% # number of syscalls executed
system.cpu1.kern.syscall::59                        1     33.33%    100.00% # number of syscalls executed
system.cpu1.kern.syscall::total                     3                       # number of syscalls executed
system.cpu1.kern.callpal::wripir                    1      0.25%      0.25% # number of callpals executed
system.cpu1.kern.callpal::swpctx                   58     14.29%     14.53% # number of callpals executed
system.cpu1.kern.callpal::tbi                       4      0.99%     15.52% # number of callpals executed
system.cpu1.kern.callpal::swpipl                  239     58.87%     74.38% # number of callpals executed
system.cpu1.kern.callpal::rdps                     17      4.19%     78.57% # number of callpals executed
system.cpu1.kern.callpal::rti                      77     18.97%     97.54% # number of callpals executed
system.cpu1.kern.callpal::callsys                   9      2.22%     99.75% # number of callpals executed
system.cpu1.kern.callpal::imb                       1      0.25%    100.00% # number of callpals executed
system.cpu1.kern.callpal::total                   406                       # number of callpals executed
system.cpu1.kern.mode_switch::kernel              124                       # number of protection mode switches
system.cpu1.kern.mode_switch::user                 67                       # number of protection mode switches
system.cpu1.kern.mode_switch::idle                 11                       # number of protection mode switches
system.cpu1.kern.mode_good::kernel                 68                      
system.cpu1.kern.mode_good::user                   67                      
system.cpu1.kern.mode_good::idle                    1                      
system.cpu1.kern.mode_switch_good::kernel     0.548387                       # fraction of useful protection mode switches
system.cpu1.kern.mode_switch_good::user             1                       # fraction of useful protection mode switches
system.cpu1.kern.mode_switch_good::idle      0.090909                       # fraction of useful protection mode switches
system.cpu1.kern.mode_switch_good::total     0.673267                       # fraction of useful protection mode switches
system.cpu1.kern.mode_ticks::kernel        1177640000     15.81%     15.81% # number of ticks spent at the given mode
system.cpu1.kern.mode_ticks::user           163570000      2.20%     18.00% # number of ticks spent at the given mode
system.cpu1.kern.mode_ticks::idle          6109680000     82.00%    100.00% # number of ticks spent at the given mode
system.cpu1.kern.swap_context                      58                       # number of times the context was actually changed
system.cpu1.icache.tags.replacements             1428                       # number of replacements
system.cpu1.icache.tags.tagsinuse                 512                       # Cycle average of tags in use
system.cpu1.icache.tags.total_refs            5438968                       # Total number of references to valid blocks.
system.cpu1.icache.tags.sampled_refs             1940                       # Sample count of references to valid blocks.
system.cpu1.icache.tags.avg_refs          2803.591753                       # Average number of references to valid blocks.
system.cpu1.icache.tags.warmup_cycle                0                       # Cycle when the warmup percentage was hit.
system.cpu1.icache.tags.occ_blocks::cpu1.inst          512                       # Average occupied blocks per requestor
system.cpu1.icache.tags.occ_percent::cpu1.inst            1                       # Average percentage of cache occupancy
system.cpu1.icache.tags.occ_percent::total            1                       # Average percentage of cache occupancy
system.cpu1.icache.tags.occ_task_id_blocks::1024          512                       # Occupied blocks per task id
system.cpu1.icache.tags.age_task_id_blocks_1024::2            2                       # Occupied blocks per task id
system.cpu1.icache.tags.age_task_id_blocks_1024::3          388                       # Occupied blocks per task id
system.cpu1.icache.tags.age_task_id_blocks_1024::4          122                       # Occupied blocks per task id
system.cpu1.icache.tags.occ_task_id_percent::1024            1                       # Percentage of cache occupancy per task id
system.cpu1.icache.tags.tag_accesses           293118                       # Number of tag accesses
system.cpu1.icache.tags.data_accesses          293118                       # Number of data accesses
system.cpu1.icache.ReadReq_hits::cpu1.inst       144417                       # number of ReadReq hits
system.cpu1.icache.ReadReq_hits::total         144417                       # number of ReadReq hits
system.cpu1.icache.demand_hits::cpu1.inst       144417                       # number of demand (read+write) hits
system.cpu1.icache.demand_hits::total          144417                       # number of demand (read+write) hits
system.cpu1.icache.overall_hits::cpu1.inst       144417                       # number of overall hits
system.cpu1.icache.overall_hits::total         144417                       # number of overall hits
system.cpu1.icache.ReadReq_misses::cpu1.inst         1428                       # number of ReadReq misses
system.cpu1.icache.ReadReq_misses::total         1428                       # number of ReadReq misses
system.cpu1.icache.demand_misses::cpu1.inst         1428                       # number of demand (read+write) misses
system.cpu1.icache.demand_misses::total          1428                       # number of demand (read+write) misses
system.cpu1.icache.overall_misses::cpu1.inst         1428                       # number of overall misses
system.cpu1.icache.overall_misses::total         1428                       # number of overall misses
system.cpu1.icache.ReadReq_accesses::cpu1.inst       145845                       # number of ReadReq accesses(hits+misses)
system.cpu1.icache.ReadReq_accesses::total       145845                       # number of ReadReq accesses(hits+misses)
system.cpu1.icache.demand_accesses::cpu1.inst       145845                       # number of demand (read+write) accesses
system.cpu1.icache.demand_accesses::total       145845                       # number of demand (read+write) accesses
system.cpu1.icache.overall_accesses::cpu1.inst       145845                       # number of overall (read+write) accesses
system.cpu1.icache.overall_accesses::total       145845                       # number of overall (read+write) accesses
system.cpu1.icache.ReadReq_miss_rate::cpu1.inst     0.009791                       # miss rate for ReadReq accesses
system.cpu1.icache.ReadReq_miss_rate::total     0.009791                       # miss rate for ReadReq accesses
system.cpu1.icache.demand_miss_rate::cpu1.inst     0.009791                       # miss rate for demand accesses
system.cpu1.icache.demand_miss_rate::total     0.009791                       # miss rate for demand accesses
system.cpu1.icache.overall_miss_rate::cpu1.inst     0.009791                       # miss rate for overall accesses
system.cpu1.icache.overall_miss_rate::total     0.009791                       # miss rate for overall accesses
system.cpu1.icache.blocked_cycles::no_mshrs            0                       # number of cycles access was blocked
system.cpu1.icache.blocked_cycles::no_targets            0                       # number of cycles access was blocked
system.cpu1.icache.blocked::no_mshrs                0                       # number of cycles access was blocked
system.cpu1.icache.blocked::no_targets              0                       # number of cycles access was blocked
system.cpu1.icache.avg_blocked_cycles::no_mshrs          nan                       # average number of cycles each access was blocked
system.cpu1.icache.avg_blocked_cycles::no_targets          nan                       # average number of cycles each access was blocked
system.cpu1.icache.fast_writes                      0                       # number of fast writes performed
system.cpu1.icache.cache_copies                     0                       # number of cache copies performed
system.cpu1.icache.no_allocate_misses               0                       # Number of misses that were no-allocate
system.cpu1.dcache.tags.replacements             1410                       # number of replacements
system.cpu1.dcache.tags.tagsinuse          894.606209                       # Cycle average of tags in use
system.cpu1.dcache.tags.total_refs             583763                       # Total number of references to valid blocks.
system.cpu1.dcache.tags.sampled_refs             2305                       # Sample count of references to valid blocks.
system.cpu1.dcache.tags.avg_refs           253.259436                       # Average number of references to valid blocks.
system.cpu1.dcache.tags.warmup_cycle                0                       # Cycle when the warmup percentage was hit.
system.cpu1.dcache.tags.occ_blocks::cpu1.data   894.606209                       # Average occupied blocks per requestor
system.cpu1.dcache.tags.occ_percent::cpu1.data     0.873639                       # Average percentage of cache occupancy
system.cpu1.dcache.tags.occ_percent::total     0.873639                       # Average percentage of cache occupancy
system.cpu1.dcache.tags.occ_task_id_blocks::1024          895                       # Occupied blocks per task id
system.cpu1.dcache.tags.age_task_id_blocks_1024::3          636                       # Occupied blocks per task id
system.cpu1.dcache.tags.age_task_id_blocks_1024::4          259                       # Occupied blocks per task id
system.cpu1.dcache.tags.occ_task_id_percent::1024     0.874023                       # Percentage of cache occupancy per task id
system.cpu1.dcache.tags.tag_accesses            85294                       # Number of tag accesses
system.cpu1.dcache.tags.data_accesses           85294                       # Number of data accesses
system.cpu1.dcache.ReadReq_hits::cpu1.data        24836                       # number of ReadReq hits
system.cpu1.dcache.ReadReq_hits::total          24836                       # number of ReadReq hits
system.cpu1.dcache.WriteReq_hits::cpu1.data        14074                       # number of WriteReq hits
system.cpu1.dcache.WriteReq_hits::total         14074                       # number of WriteReq hits
system.cpu1.dcache.LoadLockedReq_hits::cpu1.data          473                       # number of LoadLockedReq hits
system.cpu1.dcache.LoadLockedReq_hits::total          473                       # number of LoadLockedReq hits
system.cpu1.dcache.StoreCondReq_hits::cpu1.data          491                       # number of StoreCondReq hits
system.cpu1.dcache.StoreCondReq_hits::total          491                       # number of StoreCondReq hits
system.cpu1.dcache.demand_hits::cpu1.data        38910                       # number of demand (read+write) hits
system.cpu1.dcache.demand_hits::total           38910                       # number of demand (read+write) hits
system.cpu1.dcache.overall_hits::cpu1.data        38910                       # number of overall hits
system.cpu1.dcache.overall_hits::total          38910                       # number of overall hits
system.cpu1.dcache.ReadReq_misses::cpu1.data         1170                       # number of ReadReq misses
system.cpu1.dcache.ReadReq_misses::total         1170                       # number of ReadReq misses
system.cpu1.dcache.WriteReq_misses::cpu1.data          647                       # number of WriteReq misses
system.cpu1.dcache.WriteReq_misses::total          647                       # number of WriteReq misses
system.cpu1.dcache.LoadLockedReq_misses::cpu1.data           35                       # number of LoadLockedReq misses
system.cpu1.dcache.LoadLockedReq_misses::total           35                       # number of LoadLockedReq misses
system.cpu1.dcache.StoreCondReq_misses::cpu1.data           17                       # number of StoreCondReq misses
system.cpu1.dcache.StoreCondReq_misses::total           17                       # number of StoreCondReq misses
system.cpu1.dcache.demand_misses::cpu1.data         1817                       # number of demand (read+write) misses
system.cpu1.dcache.demand_misses::total          1817                       # number of demand (read+write) misses
system.cpu1.dcache.overall_misses::cpu1.data         1817                       # number of overall misses
system.cpu1.dcache.overall_misses::total         1817                       # number of overall misses
system.cpu1.dcache.ReadReq_accesses::cpu1.data        26006                       # number of ReadReq accesses(hits+misses)
system.cpu1.dcache.ReadReq_accesses::total        26006                       # number of ReadReq accesses(hits+misses)
system.cpu1.dcache.WriteReq_accesses::cpu1.data        14721                       # number of WriteReq accesses(hits+misses)
system.cpu1.dcache.WriteReq_accesses::total        14721                       # number of WriteReq accesses(hits+misses)
system.cpu1.dcache.LoadLockedReq_accesses::cpu1.data          508                       # number of LoadLockedReq accesses(hits+misses)
system.cpu1.dcache.LoadLockedReq_accesses::total          508                       # number of LoadLockedReq accesses(hits+misses)
system.cpu1.dcache.StoreCondReq_accesses::cpu1.data          508                       # number of StoreCondReq accesses(hits+misses)
system.cpu1.dcache.StoreCondReq_accesses::total          508                       # number of StoreCondReq accesses(hits+misses)
system.cpu1.dcache.demand_accesses::cpu1.data        40727                       # number of demand (read+write) accesses
system.cpu1.dcache.demand_accesses::total        40727                       # number of demand (read+write) accesses
system.cpu1.dcache.overall_accesses::cpu1.data        40727                       # number of overall (read+write) accesses
system.cpu1.dcache.overall_accesses::total        40727                       # number of overall (read+write) accesses
system.cpu1.dcache.ReadReq_miss_rate::cpu1.data     0.044990                       # miss rate for ReadReq accesses
system.cpu1.dcache.ReadReq_miss_rate::total     0.044990                       # miss rate for ReadReq accesses
system.cpu1.dcache.WriteReq_miss_rate::cpu1.data     0.043951                       # miss rate for WriteReq accesses
system.cpu1.dcache.WriteReq_miss_rate::total     0.043951                       # miss rate for WriteReq accesses
system.cpu1.dcache.LoadLockedReq_miss_rate::cpu1.data     0.068898                       # miss rate for LoadLockedReq accesses
system.cpu1.dcache.LoadLockedReq_miss_rate::total     0.068898                       # miss rate for LoadLockedReq accesses
system.cpu1.dcache.StoreCondReq_miss_rate::cpu1.data     0.033465                       # miss rate for StoreCondReq accesses
system.cpu1.dcache.StoreCondReq_miss_rate::total     0.033465                       # miss rate for StoreCondReq accesses
system.cpu1.dcache.demand_miss_rate::cpu1.data     0.044614                       # miss rate for demand accesses
system.cpu1.dcache.demand_miss_rate::total     0.044614                       # miss rate for demand accesses
system.cpu1.dcache.overall_miss_rate::cpu1.data     0.044614                       # miss rate for overall accesses
system.cpu1.dcache.overall_miss_rate::total     0.044614                       # miss rate for overall accesses
system.cpu1.dcache.blocked_cycles::no_mshrs            0                       # number of cycles access was blocked
system.cpu1.dcache.blocked_cycles::no_targets            0                       # number of cycles access was blocked
system.cpu1.dcache.blocked::no_mshrs                0                       # number of cycles access was blocked
system.cpu1.dcache.blocked::no_targets              0                       # number of cycles access was blocked
system.cpu1.dcache.avg_blocked_cycles::no_mshrs          nan                       # average number of cycles each access was blocked
system.cpu1.dcache.avg_blocked_cycles::no_targets          nan                       # average number of cycles each access was blocked
system.cpu1.dcache.fast_writes                      0                       # number of fast writes performed
system.cpu1.dcache.cache_copies                     0                       # number of cache copies performed
system.cpu1.dcache.writebacks::writebacks          625                       # number of writebacks
system.cpu1.dcache.writebacks::total              625                       # number of writebacks
system.cpu1.dcache.no_allocate_misses               0                       # Number of misses that were no-allocate

---------- End Simulation Statistics   ----------
