
---------- Begin Simulation Statistics ----------
sim_seconds                                  4.822263                       # Number of seconds simulated
sim_ticks                                4822262538372                       # Number of ticks simulated
final_tick                               4822262538372                       # Number of ticks from beginning of simulation (restored from checkpoints and never reset)
sim_freq                                 1000000000000                       # Frequency of simulated ticks
host_inst_rate                                1847105                       # Simulator instruction rate (inst/s)
host_op_rate                                  4229852                       # Simulator op (including micro ops) rate (op/s)
host_tick_rate                            18233634899                       # Simulator tick rate (ticks/s)
host_mem_usage                                 660276                       # Number of bytes of host memory used
host_seconds                                   264.47                       # Real time elapsed on the host
sim_insts                                   488505043                       # Number of instructions simulated
sim_ops                                    1118671995                       # Number of ops (including micro ops) simulated
system.voltage_domain.voltage                       1                       # Voltage in Volts
system.clk_domain.clock                          1000                       # Clock period in ticks
system.mem_ctrls.bytes_read::pc.south_bridge.ide        36928                       # Number of bytes read from this memory
system.mem_ctrls.bytes_read::cpu.dtb.walker       446400                       # Number of bytes read from this memory
system.mem_ctrls.bytes_read::cpu.itb.walker       229632                       # Number of bytes read from this memory
system.mem_ctrls.bytes_read::cpu.inst        65068160                       # Number of bytes read from this memory
system.mem_ctrls.bytes_read::cpu.data       417947776                       # Number of bytes read from this memory
system.mem_ctrls.bytes_read::total          483728896                       # Number of bytes read from this memory
system.mem_ctrls.bytes_inst_read::cpu.inst     65068160                       # Number of instructions bytes read from this memory
system.mem_ctrls.bytes_inst_read::total      65068160                       # Number of instructions bytes read from this memory
system.mem_ctrls.bytes_written::writebacks     41290752                       # Number of bytes written to this memory
system.mem_ctrls.bytes_written::pc.south_bridge.ide      2661376                       # Number of bytes written to this memory
system.mem_ctrls.bytes_written::total        43952128                       # Number of bytes written to this memory
system.mem_ctrls.num_reads::pc.south_bridge.ide          577                       # Number of read requests responded to by this memory
system.mem_ctrls.num_reads::cpu.dtb.walker         6975                       # Number of read requests responded to by this memory
system.mem_ctrls.num_reads::cpu.itb.walker         3588                       # Number of read requests responded to by this memory
system.mem_ctrls.num_reads::cpu.inst          1016690                       # Number of read requests responded to by this memory
system.mem_ctrls.num_reads::cpu.data          6530434                       # Number of read requests responded to by this memory
system.mem_ctrls.num_reads::total             7558264                       # Number of read requests responded to by this memory
system.mem_ctrls.num_writes::writebacks        645168                       # Number of write requests responded to by this memory
system.mem_ctrls.num_writes::pc.south_bridge.ide        41584                       # Number of write requests responded to by this memory
system.mem_ctrls.num_writes::total             686752                       # Number of write requests responded to by this memory
system.mem_ctrls.bw_read::pc.south_bridge.ide         7658                       # Total read bandwidth from this memory (bytes/s)
system.mem_ctrls.bw_read::cpu.dtb.walker        92571                       # Total read bandwidth from this memory (bytes/s)
system.mem_ctrls.bw_read::cpu.itb.walker        47619                       # Total read bandwidth from this memory (bytes/s)
system.mem_ctrls.bw_read::cpu.inst           13493284                       # Total read bandwidth from this memory (bytes/s)
system.mem_ctrls.bw_read::cpu.data           86670473                       # Total read bandwidth from this memory (bytes/s)
system.mem_ctrls.bw_read::total             100311605                       # Total read bandwidth from this memory (bytes/s)
system.mem_ctrls.bw_inst_read::cpu.inst      13493284                       # Instruction read bandwidth from this memory (bytes/s)
system.mem_ctrls.bw_inst_read::total         13493284                       # Instruction read bandwidth from this memory (bytes/s)
system.mem_ctrls.bw_write::writebacks         8562527                       # Write bandwidth from this memory (bytes/s)
system.mem_ctrls.bw_write::pc.south_bridge.ide       551894                       # Write bandwidth from this memory (bytes/s)
system.mem_ctrls.bw_write::total              9114420                       # Write bandwidth from this memory (bytes/s)
system.mem_ctrls.bw_total::writebacks         8562527                       # Total bandwidth to/from this memory (bytes/s)
system.mem_ctrls.bw_total::pc.south_bridge.ide       559551                       # Total bandwidth to/from this memory (bytes/s)
system.mem_ctrls.bw_total::cpu.dtb.walker        92571                       # Total bandwidth to/from this memory (bytes/s)
system.mem_ctrls.bw_total::cpu.itb.walker        47619                       # Total bandwidth to/from this memory (bytes/s)
system.mem_ctrls.bw_total::cpu.inst          13493284                       # Total bandwidth to/from this memory (bytes/s)
system.mem_ctrls.bw_total::cpu.data          86670473                       # Total bandwidth to/from this memory (bytes/s)
system.mem_ctrls.bw_total::total            109426026                       # Total bandwidth to/from this memory (bytes/s)
system.mem_ctrls.readReqs                           0                       # Number of read requests accepted
system.mem_ctrls.writeReqs                          0                       # Number of write requests accepted
system.mem_ctrls.readBursts                         0                       # Number of DRAM read bursts, including those serviced by the write queue
system.mem_ctrls.writeBursts                        0                       # Number of DRAM write bursts, including those merged in the write queue
system.mem_ctrls.bytesReadDRAM                      0                       # Total number of bytes read from DRAM
system.mem_ctrls.bytesReadWrQ                       0                       # Total number of bytes read from write queue
system.mem_ctrls.bytesWritten                       0                       # Total number of bytes written to DRAM
system.mem_ctrls.bytesReadSys                       0                       # Total read bytes from the system interface side
system.mem_ctrls.bytesWrittenSys                    0                       # Total written bytes from the system interface side
system.mem_ctrls.servicedByWrQ                      0                       # Number of DRAM read bursts serviced by the write queue
system.mem_ctrls.mergedWrBursts                     0                       # Number of DRAM write bursts merged with an existing one
system.mem_ctrls.neitherReadNorWriteReqs            0                       # Number of requests that are neither read nor write
system.mem_ctrls.perBankRdBursts::0                 0                       # Per bank write bursts
system.mem_ctrls.perBankRdBursts::1                 0                       # Per bank write bursts
system.mem_ctrls.perBankRdBursts::2                 0                       # Per bank write bursts
system.mem_ctrls.perBankRdBursts::3                 0                       # Per bank write bursts
system.mem_ctrls.perBankRdBursts::4                 0                       # Per bank write bursts
system.mem_ctrls.perBankRdBursts::5                 0                       # Per bank write bursts
system.mem_ctrls.perBankRdBursts::6                 0                       # Per bank write bursts
system.mem_ctrls.perBankRdBursts::7                 0                       # Per bank write bursts
system.mem_ctrls.perBankRdBursts::8                 0                       # Per bank write bursts
system.mem_ctrls.perBankRdBursts::9                 0                       # Per bank write bursts
system.mem_ctrls.perBankRdBursts::10                0                       # Per bank write bursts
system.mem_ctrls.perBankRdBursts::11                0                       # Per bank write bursts
system.mem_ctrls.perBankRdBursts::12                0                       # Per bank write bursts
system.mem_ctrls.perBankRdBursts::13                0                       # Per bank write bursts
system.mem_ctrls.perBankRdBursts::14                0                       # Per bank write bursts
system.mem_ctrls.perBankRdBursts::15                0                       # Per bank write bursts
system.mem_ctrls.perBankWrBursts::0                 0                       # Per bank write bursts
system.mem_ctrls.perBankWrBursts::1                 0                       # Per bank write bursts
system.mem_ctrls.perBankWrBursts::2                 0                       # Per bank write bursts
system.mem_ctrls.perBankWrBursts::3                 0                       # Per bank write bursts
system.mem_ctrls.perBankWrBursts::4                 0                       # Per bank write bursts
system.mem_ctrls.perBankWrBursts::5                 0                       # Per bank write bursts
system.mem_ctrls.perBankWrBursts::6                 0                       # Per bank write bursts
system.mem_ctrls.perBankWrBursts::7                 0                       # Per bank write bursts
system.mem_ctrls.perBankWrBursts::8                 0                       # Per bank write bursts
system.mem_ctrls.perBankWrBursts::9                 0                       # Per bank write bursts
system.mem_ctrls.perBankWrBursts::10                0                       # Per bank write bursts
system.mem_ctrls.perBankWrBursts::11                0                       # Per bank write bursts
system.mem_ctrls.perBankWrBursts::12                0                       # Per bank write bursts
system.mem_ctrls.perBankWrBursts::13                0                       # Per bank write bursts
system.mem_ctrls.perBankWrBursts::14                0                       # Per bank write bursts
system.mem_ctrls.perBankWrBursts::15                0                       # Per bank write bursts
system.mem_ctrls.numRdRetry                         0                       # Number of times read queue was full causing retry
system.mem_ctrls.numWrRetry                         0                       # Number of times write queue was full causing retry
system.mem_ctrls.totGap                             0                       # Total gap between requests
system.mem_ctrls.readPktSize::0                     0                       # Read request sizes (log2)
system.mem_ctrls.readPktSize::1                     0                       # Read request sizes (log2)
system.mem_ctrls.readPktSize::2                     0                       # Read request sizes (log2)
system.mem_ctrls.readPktSize::3                     0                       # Read request sizes (log2)
system.mem_ctrls.readPktSize::4                     0                       # Read request sizes (log2)
system.mem_ctrls.readPktSize::5                     0                       # Read request sizes (log2)
system.mem_ctrls.readPktSize::6                     0                       # Read request sizes (log2)
system.mem_ctrls.writePktSize::0                    0                       # Write request sizes (log2)
system.mem_ctrls.writePktSize::1                    0                       # Write request sizes (log2)
system.mem_ctrls.writePktSize::2                    0                       # Write request sizes (log2)
system.mem_ctrls.writePktSize::3                    0                       # Write request sizes (log2)
system.mem_ctrls.writePktSize::4                    0                       # Write request sizes (log2)
system.mem_ctrls.writePktSize::5                    0                       # Write request sizes (log2)
system.mem_ctrls.writePktSize::6                    0                       # Write request sizes (log2)
system.mem_ctrls.rdQLenPdf::0                       0                       # What read queue length does an incoming req see
system.mem_ctrls.rdQLenPdf::1                       0                       # What read queue length does an incoming req see
system.mem_ctrls.rdQLenPdf::2                       0                       # What read queue length does an incoming req see
system.mem_ctrls.rdQLenPdf::3                       0                       # What read queue length does an incoming req see
system.mem_ctrls.rdQLenPdf::4                       0                       # What read queue length does an incoming req see
system.mem_ctrls.rdQLenPdf::5                       0                       # What read queue length does an incoming req see
system.mem_ctrls.rdQLenPdf::6                       0                       # What read queue length does an incoming req see
system.mem_ctrls.rdQLenPdf::7                       0                       # What read queue length does an incoming req see
system.mem_ctrls.rdQLenPdf::8                       0                       # What read queue length does an incoming req see
system.mem_ctrls.rdQLenPdf::9                       0                       # What read queue length does an incoming req see
system.mem_ctrls.rdQLenPdf::10                      0                       # What read queue length does an incoming req see
system.mem_ctrls.rdQLenPdf::11                      0                       # What read queue length does an incoming req see
system.mem_ctrls.rdQLenPdf::12                      0                       # What read queue length does an incoming req see
system.mem_ctrls.rdQLenPdf::13                      0                       # What read queue length does an incoming req see
system.mem_ctrls.rdQLenPdf::14                      0                       # What read queue length does an incoming req see
system.mem_ctrls.rdQLenPdf::15                      0                       # What read queue length does an incoming req see
system.mem_ctrls.rdQLenPdf::16                      0                       # What read queue length does an incoming req see
system.mem_ctrls.rdQLenPdf::17                      0                       # What read queue length does an incoming req see
system.mem_ctrls.rdQLenPdf::18                      0                       # What read queue length does an incoming req see
system.mem_ctrls.rdQLenPdf::19                      0                       # What read queue length does an incoming req see
system.mem_ctrls.rdQLenPdf::20                      0                       # What read queue length does an incoming req see
system.mem_ctrls.rdQLenPdf::21                      0                       # What read queue length does an incoming req see
system.mem_ctrls.rdQLenPdf::22                      0                       # What read queue length does an incoming req see
system.mem_ctrls.rdQLenPdf::23                      0                       # What read queue length does an incoming req see
system.mem_ctrls.rdQLenPdf::24                      0                       # What read queue length does an incoming req see
system.mem_ctrls.rdQLenPdf::25                      0                       # What read queue length does an incoming req see
system.mem_ctrls.rdQLenPdf::26                      0                       # What read queue length does an incoming req see
system.mem_ctrls.rdQLenPdf::27                      0                       # What read queue length does an incoming req see
system.mem_ctrls.rdQLenPdf::28                      0                       # What read queue length does an incoming req see
system.mem_ctrls.rdQLenPdf::29                      0                       # What read queue length does an incoming req see
system.mem_ctrls.rdQLenPdf::30                      0                       # What read queue length does an incoming req see
system.mem_ctrls.rdQLenPdf::31                      0                       # What read queue length does an incoming req see
system.mem_ctrls.wrQLenPdf::0                       0                       # What write queue length does an incoming req see
system.mem_ctrls.wrQLenPdf::1                       0                       # What write queue length does an incoming req see
system.mem_ctrls.wrQLenPdf::2                       0                       # What write queue length does an incoming req see
system.mem_ctrls.wrQLenPdf::3                       0                       # What write queue length does an incoming req see
system.mem_ctrls.wrQLenPdf::4                       0                       # What write queue length does an incoming req see
system.mem_ctrls.wrQLenPdf::5                       0                       # What write queue length does an incoming req see
system.mem_ctrls.wrQLenPdf::6                       0                       # What write queue length does an incoming req see
system.mem_ctrls.wrQLenPdf::7                       0                       # What write queue length does an incoming req see
system.mem_ctrls.wrQLenPdf::8                       0                       # What write queue length does an incoming req see
system.mem_ctrls.wrQLenPdf::9                       0                       # What write queue length does an incoming req see
system.mem_ctrls.wrQLenPdf::10                      0                       # What write queue length does an incoming req see
system.mem_ctrls.wrQLenPdf::11                      0                       # What write queue length does an incoming req see
system.mem_ctrls.wrQLenPdf::12                      0                       # What write queue length does an incoming req see
system.mem_ctrls.wrQLenPdf::13                      0                       # What write queue length does an incoming req see
system.mem_ctrls.wrQLenPdf::14                      0                       # What write queue length does an incoming req see
system.mem_ctrls.wrQLenPdf::15                      0                       # What write queue length does an incoming req see
system.mem_ctrls.wrQLenPdf::16                      0                       # What write queue length does an incoming req see
system.mem_ctrls.wrQLenPdf::17                      0                       # What write queue length does an incoming req see
system.mem_ctrls.wrQLenPdf::18                      0                       # What write queue length does an incoming req see
system.mem_ctrls.wrQLenPdf::19                      0                       # What write queue length does an incoming req see
system.mem_ctrls.wrQLenPdf::20                      0                       # What write queue length does an incoming req see
system.mem_ctrls.wrQLenPdf::21                      0                       # What write queue length does an incoming req see
system.mem_ctrls.wrQLenPdf::22                      0                       # What write queue length does an incoming req see
system.mem_ctrls.wrQLenPdf::23                      0                       # What write queue length does an incoming req see
system.mem_ctrls.wrQLenPdf::24                      0                       # What write queue length does an incoming req see
system.mem_ctrls.wrQLenPdf::25                      0                       # What write queue length does an incoming req see
system.mem_ctrls.wrQLenPdf::26                      0                       # What write queue length does an incoming req see
system.mem_ctrls.wrQLenPdf::27                      0                       # What write queue length does an incoming req see
system.mem_ctrls.wrQLenPdf::28                      0                       # What write queue length does an incoming req see
system.mem_ctrls.wrQLenPdf::29                      0                       # What write queue length does an incoming req see
system.mem_ctrls.wrQLenPdf::30                      0                       # What write queue length does an incoming req see
system.mem_ctrls.wrQLenPdf::31                      0                       # What write queue length does an incoming req see
system.mem_ctrls.wrQLenPdf::32                      0                       # What write queue length does an incoming req see
system.mem_ctrls.wrQLenPdf::33                      0                       # What write queue length does an incoming req see
system.mem_ctrls.wrQLenPdf::34                      0                       # What write queue length does an incoming req see
system.mem_ctrls.wrQLenPdf::35                      0                       # What write queue length does an incoming req see
system.mem_ctrls.wrQLenPdf::36                      0                       # What write queue length does an incoming req see
system.mem_ctrls.wrQLenPdf::37                      0                       # What write queue length does an incoming req see
system.mem_ctrls.wrQLenPdf::38                      0                       # What write queue length does an incoming req see
system.mem_ctrls.wrQLenPdf::39                      0                       # What write queue length does an incoming req see
system.mem_ctrls.wrQLenPdf::40                      0                       # What write queue length does an incoming req see
system.mem_ctrls.wrQLenPdf::41                      0                       # What write queue length does an incoming req see
system.mem_ctrls.wrQLenPdf::42                      0                       # What write queue length does an incoming req see
system.mem_ctrls.wrQLenPdf::43                      0                       # What write queue length does an incoming req see
system.mem_ctrls.wrQLenPdf::44                      0                       # What write queue length does an incoming req see
system.mem_ctrls.wrQLenPdf::45                      0                       # What write queue length does an incoming req see
system.mem_ctrls.wrQLenPdf::46                      0                       # What write queue length does an incoming req see
system.mem_ctrls.wrQLenPdf::47                      0                       # What write queue length does an incoming req see
system.mem_ctrls.wrQLenPdf::48                      0                       # What write queue length does an incoming req see
system.mem_ctrls.wrQLenPdf::49                      0                       # What write queue length does an incoming req see
system.mem_ctrls.wrQLenPdf::50                      0                       # What write queue length does an incoming req see
system.mem_ctrls.wrQLenPdf::51                      0                       # What write queue length does an incoming req see
system.mem_ctrls.wrQLenPdf::52                      0                       # What write queue length does an incoming req see
system.mem_ctrls.wrQLenPdf::53                      0                       # What write queue length does an incoming req see
system.mem_ctrls.wrQLenPdf::54                      0                       # What write queue length does an incoming req see
system.mem_ctrls.wrQLenPdf::55                      0                       # What write queue length does an incoming req see
system.mem_ctrls.wrQLenPdf::56                      0                       # What write queue length does an incoming req see
system.mem_ctrls.wrQLenPdf::57                      0                       # What write queue length does an incoming req see
system.mem_ctrls.wrQLenPdf::58                      0                       # What write queue length does an incoming req see
system.mem_ctrls.wrQLenPdf::59                      0                       # What write queue length does an incoming req see
system.mem_ctrls.wrQLenPdf::60                      0                       # What write queue length does an incoming req see
system.mem_ctrls.wrQLenPdf::61                      0                       # What write queue length does an incoming req see
system.mem_ctrls.wrQLenPdf::62                      0                       # What write queue length does an incoming req see
system.mem_ctrls.wrQLenPdf::63                      0                       # What write queue length does an incoming req see
system.mem_ctrls.totQLat                            0                       # Total ticks spent queuing
system.mem_ctrls.totMemAccLat                       0                       # Total ticks spent from burst creation until serviced by the DRAM
system.mem_ctrls.totBusLat                          0                       # Total ticks spent in databus transfers
system.mem_ctrls.avgQLat                          nan                       # Average queueing delay per DRAM burst
system.mem_ctrls.avgBusLat                        nan                       # Average bus latency per DRAM burst
system.mem_ctrls.avgMemAccLat                     nan                       # Average memory access latency per DRAM burst
system.mem_ctrls.avgRdBW                         0.00                       # Average DRAM read bandwidth in MiByte/s
system.mem_ctrls.avgWrBW                         0.00                       # Average achieved write bandwidth in MiByte/s
system.mem_ctrls.avgRdBWSys                      0.00                       # Average system read bandwidth in MiByte/s
system.mem_ctrls.avgWrBWSys                      0.00                       # Average system write bandwidth in MiByte/s
system.mem_ctrls.peakBW                      12800.00                       # Theoretical peak bandwidth in MiByte/s
system.mem_ctrls.busUtil                         0.00                       # Data bus utilization in percentage
system.mem_ctrls.busUtilRead                     0.00                       # Data bus utilization in percentage for reads
system.mem_ctrls.busUtilWrite                    0.00                       # Data bus utilization in percentage for writes
system.mem_ctrls.avgRdQLen                       0.00                       # Average read queue length when enqueuing
system.mem_ctrls.avgWrQLen                       0.00                       # Average write queue length when enqueuing
system.mem_ctrls.readRowHits                        0                       # Number of row buffer hits during reads
system.mem_ctrls.writeRowHits                       0                       # Number of row buffer hits during writes
system.mem_ctrls.readRowHitRate                   nan                       # Row buffer hit rate for reads
system.mem_ctrls.writeRowHitRate                  nan                       # Row buffer hit rate for writes
system.mem_ctrls.avgGap                           nan                       # Average gap between requests
system.mem_ctrls.pageHitRate                      nan                       # Row buffer hit rate, read and write combined
system.mem_ctrls.memoryStateTime::IDLE   4661232672500                       # Time in different power states
system.mem_ctrls.memoryStateTime::REF    161025800000                       # Time in different power states
system.mem_ctrls.memoryStateTime::PRE_PDN            0                       # Time in different power states
system.mem_ctrls.memoryStateTime::ACT               0                       # Time in different power states
system.mem_ctrls.memoryStateTime::ACT_PDN            0                       # Time in different power states
system.mem_ctrls.actEnergy::0                       0                       # Energy for activate commands per rank (pJ)
system.mem_ctrls.actEnergy::1                       0                       # Energy for activate commands per rank (pJ)
system.mem_ctrls.preEnergy::0                       0                       # Energy for precharge commands per rank (pJ)
system.mem_ctrls.preEnergy::1                       0                       # Energy for precharge commands per rank (pJ)
system.mem_ctrls.readEnergy::0                      0                       # Energy for read commands per rank (pJ)
system.mem_ctrls.readEnergy::1                      0                       # Energy for read commands per rank (pJ)
system.mem_ctrls.writeEnergy::0                     0                       # Energy for write commands per rank (pJ)
system.mem_ctrls.writeEnergy::1                     0                       # Energy for write commands per rank (pJ)
system.mem_ctrls.refreshEnergy::0        314966464800                       # Energy for refresh commands per rank (pJ)
system.mem_ctrls.refreshEnergy::1        314966464800                       # Energy for refresh commands per rank (pJ)
system.mem_ctrls.actBackEnergy::0        104316848550                       # Energy for active background per rank (pJ)
system.mem_ctrls.actBackEnergy::1        104316848550                       # Energy for active background per rank (pJ)
system.mem_ctrls.preBackEnergy::0        2801849067750                       # Energy for precharge background per rank (pJ)
system.mem_ctrls.preBackEnergy::1        2801849067750                       # Energy for precharge background per rank (pJ)
system.mem_ctrls.totalEnergy::0          3221132381100                       # Total energy per rank (pJ)
system.mem_ctrls.totalEnergy::1          3221132381100                       # Total energy per rank (pJ)
system.mem_ctrls.averagePower::0           667.971742                       # Core power per rank (mW)
system.mem_ctrls.averagePower::1           667.971742                       # Core power per rank (mW)
system.membus.trans_dist::ReadReq            11542022                       # Transaction distribution
system.membus.trans_dist::ReadResp           11542022                       # Transaction distribution
system.membus.trans_dist::WriteReq              12850                       # Transaction distribution
system.membus.trans_dist::WriteResp             12850                       # Transaction distribution
system.membus.trans_dist::Writeback            645168                       # Transaction distribution
system.membus.trans_dist::WriteInvalidateReq        41584                       # Transaction distribution
system.membus.trans_dist::WriteInvalidateResp        41584                       # Transaction distribution
system.membus.trans_dist::UpgradeReq             3461                       # Transaction distribution
system.membus.trans_dist::UpgradeResp            3461                       # Transaction distribution
system.membus.trans_dist::ReadExReq            399296                       # Transaction distribution
system.membus.trans_dist::ReadExResp           399296                       # Transaction distribution
system.membus.trans_dist::MessageReq              484                       # Transaction distribution
system.membus.trans_dist::MessageResp             484                       # Transaction distribution
system.membus.pkt_count_system.apicbridge.master::system.cpu.interrupts.int_slave          968                       # Packet count per connected master and slave (bytes)
system.membus.pkt_count_system.apicbridge.master::total          968                       # Packet count per connected master and slave (bytes)
system.membus.pkt_count_system.iocache.mem_side::system.mem_ctrls.port        85642                       # Packet count per connected master and slave (bytes)
system.membus.pkt_count_system.iocache.mem_side::total        85642                       # Packet count per connected master and slave (bytes)
system.membus.pkt_count_system.cpu.icache.mem_side::system.mem_ctrls.port      2033416                       # Packet count per connected master and slave (bytes)
system.membus.pkt_count_system.cpu.icache.mem_side::total      2033416                       # Packet count per connected master and slave (bytes)
system.membus.pkt_count_system.cpu.dcache.mem_side::system.bridge.slave      8765860                       # Packet count per connected master and slave (bytes)
system.membus.pkt_count_system.cpu.dcache.mem_side::system.cpu.interrupts.pio         3382                       # Packet count per connected master and slave (bytes)
system.membus.pkt_count_system.cpu.dcache.mem_side::system.mem_ctrls.port     13712956                       # Packet count per connected master and slave (bytes)
system.membus.pkt_count_system.cpu.dcache.mem_side::total     22482198                       # Packet count per connected master and slave (bytes)
system.membus.pkt_count_system.cpu.itb_walker_cache.mem_side::system.mem_ctrls.port        11400                       # Packet count per connected master and slave (bytes)
system.membus.pkt_count_system.cpu.itb_walker_cache.mem_side::total        11400                       # Packet count per connected master and slave (bytes)
system.membus.pkt_count_system.cpu.dtb_walker_cache.mem_side::system.mem_ctrls.port        30938                       # Packet count per connected master and slave (bytes)
system.membus.pkt_count_system.cpu.dtb_walker_cache.mem_side::total        30938                       # Packet count per connected master and slave (bytes)
system.membus.pkt_count::total               24644562                       # Packet count per connected master and slave (bytes)
system.membus.pkt_size_system.apicbridge.master::system.cpu.interrupts.int_slave         1936                       # Cumulative packet size per connected master and slave (bytes)
system.membus.pkt_size_system.apicbridge.master::total         1936                       # Cumulative packet size per connected master and slave (bytes)
system.membus.pkt_size_system.iocache.mem_side::system.mem_ctrls.port      2740544                       # Cumulative packet size per connected master and slave (bytes)
system.membus.pkt_size_system.iocache.mem_side::total      2740544                       # Cumulative packet size per connected master and slave (bytes)
system.membus.pkt_size_system.cpu.icache.mem_side::system.mem_ctrls.port     65069312                       # Cumulative packet size per connected master and slave (bytes)
system.membus.pkt_size_system.cpu.icache.mem_side::total     65069312                       # Cumulative packet size per connected master and slave (bytes)
system.membus.pkt_size_system.cpu.dcache.mem_side::system.bridge.slave      4411978                       # Cumulative packet size per connected master and slave (bytes)
system.membus.pkt_size_system.cpu.dcache.mem_side::system.cpu.interrupts.pio         6764                       # Cumulative packet size per connected master and slave (bytes)
system.membus.pkt_size_system.cpu.dcache.mem_side::system.mem_ctrls.port    459238400                       # Cumulative packet size per connected master and slave (bytes)
system.membus.pkt_size_system.cpu.dcache.mem_side::total    463657142                       # Cumulative packet size per connected master and slave (bytes)
system.membus.pkt_size_system.cpu.itb_walker_cache.mem_side::system.mem_ctrls.port       364864                       # Cumulative packet size per connected master and slave (bytes)
system.membus.pkt_size_system.cpu.itb_walker_cache.mem_side::total       364864                       # Cumulative packet size per connected master and slave (bytes)
system.membus.pkt_size_system.cpu.dtb_walker_cache.mem_side::system.mem_ctrls.port       990016                       # Cumulative packet size per connected master and slave (bytes)
system.membus.pkt_size_system.cpu.dtb_walker_cache.mem_side::total       990016                       # Cumulative packet size per connected master and slave (bytes)
system.membus.pkt_size::total               532823814                       # Cumulative packet size per connected master and slave (bytes)
system.membus.snoops                                0                       # Total snoops (count)
system.membus.snoop_fanout::samples           8259760                       # Request fanout histogram
system.membus.snoop_fanout::mean                    4                       # Request fanout histogram
system.membus.snoop_fanout::stdev                   0                       # Request fanout histogram
system.membus.snoop_fanout::underflows              0      0.00%      0.00% # Request fanout histogram
system.membus.snoop_fanout::0                       0      0.00%      0.00% # Request fanout histogram
system.membus.snoop_fanout::1                       0      0.00%      0.00% # Request fanout histogram
system.membus.snoop_fanout::2                       0      0.00%      0.00% # Request fanout histogram
system.membus.snoop_fanout::3                       0      0.00%      0.00% # Request fanout histogram
system.membus.snoop_fanout::4                 8259760    100.00%    100.00% # Request fanout histogram
system.membus.snoop_fanout::5                       0      0.00%    100.00% # Request fanout histogram
system.membus.snoop_fanout::overflows               0      0.00%    100.00% # Request fanout histogram
system.membus.snoop_fanout::min_value               4                       # Request fanout histogram
system.membus.snoop_fanout::max_value               4                       # Request fanout histogram
system.membus.snoop_fanout::total             8259760                       # Request fanout histogram
system.cpu_voltage_domain.voltage                   1                       # Voltage in Volts
system.pc.south_bridge.ide.disks0.dma_read_full_pages            9                       # Number of full page size DMA reads (not PRD).
system.pc.south_bridge.ide.disks0.dma_read_bytes        36864                       # Number of bytes transfered via DMA reads (not PRD).
system.pc.south_bridge.ide.disks0.dma_read_txs            9                       # Number of DMA read transactions (not PRD).
system.pc.south_bridge.ide.disks0.dma_write_full_pages          648                       # Number of full page size DMA writes.
system.pc.south_bridge.ide.disks0.dma_write_bytes      2657280                       # Number of bytes transfered via DMA writes.
system.pc.south_bridge.ide.disks0.dma_write_txs          652                       # Number of DMA write transactions.
system.pc.south_bridge.ide.disks1.dma_read_full_pages            0                       # Number of full page size DMA reads (not PRD).
system.pc.south_bridge.ide.disks1.dma_read_bytes            0                       # Number of bytes transfered via DMA reads (not PRD).
system.pc.south_bridge.ide.disks1.dma_read_txs            0                       # Number of DMA read transactions (not PRD).
system.pc.south_bridge.ide.disks1.dma_write_full_pages            1                       # Number of full page size DMA writes.
system.pc.south_bridge.ide.disks1.dma_write_bytes         4096                       # Number of bytes transfered via DMA writes.
system.pc.south_bridge.ide.disks1.dma_write_txs            1                       # Number of DMA write transactions.
system.iobus.trans_dist::ReadReq              4372923                       # Transaction distribution
system.iobus.trans_dist::ReadResp             4372923                       # Transaction distribution
system.iobus.trans_dist::WriteReq               52828                       # Transaction distribution
system.iobus.trans_dist::WriteResp              11244                       # Transaction distribution
system.iobus.trans_dist::WriteInvalidateResp        41584                       # Transaction distribution
system.iobus.trans_dist::MessageReq               484                       # Transaction distribution
system.iobus.trans_dist::MessageResp              484                       # Transaction distribution
system.iobus.pkt_count_system.bridge.master::system.pc.south_bridge.cmos.pio           44                       # Packet count per connected master and slave (bytes)
system.iobus.pkt_count_system.bridge.master::system.pc.south_bridge.dma1.pio            6                       # Packet count per connected master and slave (bytes)
system.iobus.pkt_count_system.bridge.master::system.pc.south_bridge.ide.pio         6304                       # Packet count per connected master and slave (bytes)
system.iobus.pkt_count_system.bridge.master::system.pc.south_bridge.ide-pciconf          180                       # Packet count per connected master and slave (bytes)
system.iobus.pkt_count_system.bridge.master::system.pc.south_bridge.keyboard.pio         1376                       # Packet count per connected master and slave (bytes)
system.iobus.pkt_count_system.bridge.master::system.pc.south_bridge.pic1.pio          304                       # Packet count per connected master and slave (bytes)
system.iobus.pkt_count_system.bridge.master::system.pc.south_bridge.pic2.pio           52                       # Packet count per connected master and slave (bytes)
system.iobus.pkt_count_system.bridge.master::system.pc.south_bridge.pit.pio      8702142                       # Packet count per connected master and slave (bytes)
system.iobus.pkt_count_system.bridge.master::system.pc.south_bridge.speaker.pio            4                       # Packet count per connected master and slave (bytes)
system.iobus.pkt_count_system.bridge.master::system.pc.south_bridge.io_apic.pio         1308                       # Packet count per connected master and slave (bytes)
system.iobus.pkt_count_system.bridge.master::system.pc.i_dont_exist.pio           60                       # Packet count per connected master and slave (bytes)
system.iobus.pkt_count_system.bridge.master::system.pc.behind_pci.pio            2                       # Packet count per connected master and slave (bytes)
system.iobus.pkt_count_system.bridge.master::system.pc.com_1.pio        35252                       # Packet count per connected master and slave (bytes)
system.iobus.pkt_count_system.bridge.master::system.pc.fake_com_2.pio           12                       # Packet count per connected master and slave (bytes)
system.iobus.pkt_count_system.bridge.master::system.pc.fake_com_3.pio           12                       # Packet count per connected master and slave (bytes)
system.iobus.pkt_count_system.bridge.master::system.pc.fake_com_4.pio           12                       # Packet count per connected master and slave (bytes)
system.iobus.pkt_count_system.bridge.master::system.pc.fake_floppy.pio           10                       # Packet count per connected master and slave (bytes)
system.iobus.pkt_count_system.bridge.master::system.pc.pciconfig.pio        18780                       # Packet count per connected master and slave (bytes)
system.iobus.pkt_count_system.bridge.master::total      8765860                       # Packet count per connected master and slave (bytes)
system.iobus.pkt_count_system.pc.south_bridge.ide.dma::system.iocache.cpu_side        85642                       # Packet count per connected master and slave (bytes)
system.iobus.pkt_count_system.pc.south_bridge.ide.dma::total        85642                       # Packet count per connected master and slave (bytes)
system.iobus.pkt_count_system.pc.south_bridge.io_apic.int_master::system.apicbridge.slave          968                       # Packet count per connected master and slave (bytes)
system.iobus.pkt_count_system.pc.south_bridge.io_apic.int_master::total          968                       # Packet count per connected master and slave (bytes)
system.iobus.pkt_count::total                 8852470                       # Packet count per connected master and slave (bytes)
system.iobus.pkt_size_system.bridge.master::system.pc.south_bridge.cmos.pio           22                       # Cumulative packet size per connected master and slave (bytes)
system.iobus.pkt_size_system.bridge.master::system.pc.south_bridge.dma1.pio            3                       # Cumulative packet size per connected master and slave (bytes)
system.iobus.pkt_size_system.bridge.master::system.pc.south_bridge.ide.pio         3985                       # Cumulative packet size per connected master and slave (bytes)
system.iobus.pkt_size_system.bridge.master::system.pc.south_bridge.ide-pciconf          219                       # Cumulative packet size per connected master and slave (bytes)
system.iobus.pkt_size_system.bridge.master::system.pc.south_bridge.keyboard.pio          688                       # Cumulative packet size per connected master and slave (bytes)
system.iobus.pkt_size_system.bridge.master::system.pc.south_bridge.pic1.pio          152                       # Cumulative packet size per connected master and slave (bytes)
system.iobus.pkt_size_system.bridge.master::system.pc.south_bridge.pic2.pio           26                       # Cumulative packet size per connected master and slave (bytes)
system.iobus.pkt_size_system.bridge.master::system.pc.south_bridge.pit.pio      4351071                       # Cumulative packet size per connected master and slave (bytes)
system.iobus.pkt_size_system.bridge.master::system.pc.south_bridge.speaker.pio            2                       # Cumulative packet size per connected master and slave (bytes)
system.iobus.pkt_size_system.bridge.master::system.pc.south_bridge.io_apic.pio         2616                       # Cumulative packet size per connected master and slave (bytes)
system.iobus.pkt_size_system.bridge.master::system.pc.i_dont_exist.pio           30                       # Cumulative packet size per connected master and slave (bytes)
system.iobus.pkt_size_system.bridge.master::system.pc.behind_pci.pio            1                       # Cumulative packet size per connected master and slave (bytes)
system.iobus.pkt_size_system.bridge.master::system.pc.com_1.pio        17626                       # Cumulative packet size per connected master and slave (bytes)
system.iobus.pkt_size_system.bridge.master::system.pc.fake_com_2.pio            6                       # Cumulative packet size per connected master and slave (bytes)
system.iobus.pkt_size_system.bridge.master::system.pc.fake_com_3.pio            6                       # Cumulative packet size per connected master and slave (bytes)
system.iobus.pkt_size_system.bridge.master::system.pc.fake_com_4.pio            6                       # Cumulative packet size per connected master and slave (bytes)
system.iobus.pkt_size_system.bridge.master::system.pc.fake_floppy.pio            5                       # Cumulative packet size per connected master and slave (bytes)
system.iobus.pkt_size_system.bridge.master::system.pc.pciconfig.pio        35514                       # Cumulative packet size per connected master and slave (bytes)
system.iobus.pkt_size_system.bridge.master::total      4411978                       # Cumulative packet size per connected master and slave (bytes)
system.iobus.pkt_size_system.pc.south_bridge.ide.dma::system.iocache.cpu_side      2703528                       # Cumulative packet size per connected master and slave (bytes)
system.iobus.pkt_size_system.pc.south_bridge.ide.dma::total      2703528                       # Cumulative packet size per connected master and slave (bytes)
system.iobus.pkt_size_system.pc.south_bridge.io_apic.int_master::system.apicbridge.slave         1936                       # Cumulative packet size per connected master and slave (bytes)
system.iobus.pkt_size_system.pc.south_bridge.io_apic.int_master::total         1936                       # Cumulative packet size per connected master and slave (bytes)
system.iobus.pkt_size::total                  7117442                       # Cumulative packet size per connected master and slave (bytes)
system.cpu_clk_domain.clock                       333                       # Clock period in ticks
system.cpu.apic_clk_domain.clock                 5328                       # Clock period in ticks
system.cpu.numCycles                      14481840939                       # number of cpu cycles simulated
system.cpu.numWorkItemsStarted                      0                       # number of work items this cpu started
system.cpu.numWorkItemsCompleted                    0                       # number of work items this cpu completed
system.cpu.committedInsts                   488505043                       # Number of instructions committed
system.cpu.committedOps                    1118671995                       # Number of ops (including micro ops) committed
system.cpu.num_int_alu_accesses            1024919557                       # Number of integer alu accesses
system.cpu.num_fp_alu_accesses                  43092                       # Number of float alu accesses
system.cpu.num_func_calls                    13497730                       # number of times a function call or return occured
system.cpu.num_conditional_control_insts    137350495                       # number of instructions that are conditional controls
system.cpu.num_int_insts                   1024919557                       # number of integer instructions
system.cpu.num_fp_insts                         43092                       # number of float instructions
system.cpu.num_int_register_reads          1690041894                       # number of times the integer registers were read
system.cpu.num_int_register_writes          853696573                       # number of times the integer registers were written
system.cpu.num_fp_register_reads                71106                       # number of times the floating registers were read
system.cpu.num_fp_register_writes               34169                       # number of times the floating registers were written
system.cpu.num_cc_register_reads            742630397                       # number of times the CC registers were read
system.cpu.num_cc_register_writes           344074294                       # number of times the CC registers were written
system.cpu.num_mem_refs                     157366434                       # number of memory refs
system.cpu.num_load_insts                   133803607                       # Number of load instructions
system.cpu.num_store_insts                   23562827                       # Number of store instructions
system.cpu.num_idle_cycles               13216637074.485857                       # Number of idle cycles
system.cpu.num_busy_cycles               1265203864.514144                       # Number of busy cycles
system.cpu.not_idle_fraction                 0.087365                       # Percentage of non-idle cycles
system.cpu.idle_fraction                     0.912635                       # Percentage of idle cycles
system.cpu.Branches                         155245785                       # Number of branches fetched
system.cpu.op_class::No_OpClass              12972634      1.16%      1.16% # Class of executed instruction
system.cpu.op_class::IntAlu                 948012814     84.74%     85.90% # Class of executed instruction
system.cpu.op_class::IntMult                   257768      0.02%     85.93% # Class of executed instruction
system.cpu.op_class::IntDiv                     32099      0.00%     85.93% # Class of executed instruction
system.cpu.op_class::FloatAdd                   30666      0.00%     85.93% # Class of executed instruction
system.cpu.op_class::FloatCmp                       0      0.00%     85.93% # Class of executed instruction
system.cpu.op_class::FloatCvt                       0      0.00%     85.93% # Class of executed instruction
system.cpu.op_class::FloatMult                      0      0.00%     85.93% # Class of executed instruction
system.cpu.op_class::FloatDiv                       0      0.00%     85.93% # Class of executed instruction
system.cpu.op_class::FloatSqrt                      0      0.00%     85.93% # Class of executed instruction
system.cpu.op_class::SimdAdd                        0      0.00%     85.93% # Class of executed instruction
system.cpu.op_class::SimdAddAcc                     0      0.00%     85.93% # Class of executed instruction
system.cpu.op_class::SimdAlu                        0      0.00%     85.93% # Class of executed instruction
system.cpu.op_class::SimdCmp                        0      0.00%     85.93% # Class of executed instruction
system.cpu.op_class::SimdCvt                        0      0.00%     85.93% # Class of executed instruction
system.cpu.op_class::SimdMisc                       0      0.00%     85.93% # Class of executed instruction
system.cpu.op_class::SimdMult                       0      0.00%     85.93% # Class of executed instruction
system.cpu.op_class::SimdMultAcc                    0      0.00%     85.93% # Class of executed instruction
system.cpu.op_class::SimdShift                      0      0.00%     85.93% # Class of executed instruction
system.cpu.op_class::SimdShiftAcc                   0      0.00%     85.93% # Class of executed instruction
system.cpu.op_class::SimdSqrt                       0      0.00%     85.93% # Class of executed instruction
system.cpu.op_class::SimdFloatAdd                   0      0.00%     85.93% # Class of executed instruction
system.cpu.op_class::SimdFloatAlu                   0      0.00%     85.93% # Class of executed instruction
system.cpu.op_class::SimdFloatCmp                   0      0.00%     85.93% # Class of executed instruction
system.cpu.op_class::SimdFloatCvt                   0      0.00%     85.93% # Class of executed instruction
system.cpu.op_class::SimdFloatDiv                   0      0.00%     85.93% # Class of executed instruction
system.cpu.op_class::SimdFloatMisc                  0      0.00%     85.93% # Class of executed instruction
system.cpu.op_class::SimdFloatMult                  0      0.00%     85.93% # Class of executed instruction
system.cpu.op_class::SimdFloatMultAcc               0      0.00%     85.93% # Class of executed instruction
system.cpu.op_class::SimdFloatSqrt                  0      0.00%     85.93% # Class of executed instruction
system.cpu.op_class::MemRead                133803607     11.96%     97.89% # Class of executed instruction
system.cpu.op_class::MemWrite                23562827      2.11%    100.00% # Class of executed instruction
system.cpu.op_class::IprAccess                      0      0.00%    100.00% # Class of executed instruction
system.cpu.op_class::InstPrefetch                   0      0.00%    100.00% # Class of executed instruction
system.cpu.op_class::total                 1118672415                       # Class of executed instruction
system.cpu.kern.inst.arm                            0                       # number of arm instructions executed
system.cpu.kern.inst.quiesce                     5445                       # number of quiesce instructions executed
system.cpu.icache.tags.replacements           1016163                       # number of replacements
system.cpu.icache.tags.tagsinuse           511.436845                       # Cycle average of tags in use
system.cpu.icache.tags.total_refs           634446378                       # Total number of references to valid blocks.
system.cpu.icache.tags.sampled_refs           1016163                       # Sample count of references to valid blocks.
system.cpu.icache.tags.avg_refs            624.354929                       # Average number of references to valid blocks.
system.cpu.icache.tags.warmup_cycle       33715688229                       # Cycle when the warmup percentage was hit.
system.cpu.icache.tags.occ_blocks::cpu.inst   511.436845                       # Average occupied blocks per requestor
system.cpu.icache.tags.occ_percent::cpu.inst     0.998900                       # Average percentage of cache occupancy
system.cpu.icache.tags.occ_percent::total     0.998900                       # Average percentage of cache occupancy
system.cpu.icache.tags.occ_task_id_blocks::1024          512                       # Occupied blocks per task id
system.cpu.icache.tags.age_task_id_blocks_1024::0          167                       # Occupied blocks per task id
system.cpu.icache.tags.age_task_id_blocks_1024::1          335                       # Occupied blocks per task id
system.cpu.icache.tags.age_task_id_blocks_1024::2           10                       # Occupied blocks per task id
system.cpu.icache.tags.occ_task_id_percent::1024            1                       # Percentage of cache occupancy per task id
system.cpu.icache.tags.tag_accesses        1272117530                       # Number of tag accesses
system.cpu.icache.tags.data_accesses       1272117530                       # Number of data accesses
system.cpu.icache.ReadReq_hits::cpu.inst    634533703                       # number of ReadReq hits
system.cpu.icache.ReadReq_hits::total       634533703                       # number of ReadReq hits
system.cpu.icache.demand_hits::cpu.inst     634533703                       # number of demand (read+write) hits
system.cpu.icache.demand_hits::total        634533703                       # number of demand (read+write) hits
system.cpu.icache.overall_hits::cpu.inst    634533703                       # number of overall hits
system.cpu.icache.overall_hits::total       634533703                       # number of overall hits
system.cpu.icache.ReadReq_misses::cpu.inst      1016708                       # number of ReadReq misses
system.cpu.icache.ReadReq_misses::total       1016708                       # number of ReadReq misses
system.cpu.icache.demand_misses::cpu.inst      1016708                       # number of demand (read+write) misses
system.cpu.icache.demand_misses::total        1016708                       # number of demand (read+write) misses
system.cpu.icache.overall_misses::cpu.inst      1016708                       # number of overall misses
system.cpu.icache.overall_misses::total       1016708                       # number of overall misses
system.cpu.icache.ReadReq_accesses::cpu.inst    635550411                       # number of ReadReq accesses(hits+misses)
system.cpu.icache.ReadReq_accesses::total    635550411                       # number of ReadReq accesses(hits+misses)
system.cpu.icache.demand_accesses::cpu.inst    635550411                       # number of demand (read+write) accesses
system.cpu.icache.demand_accesses::total    635550411                       # number of demand (read+write) accesses
system.cpu.icache.overall_accesses::cpu.inst    635550411                       # number of overall (read+write) accesses
system.cpu.icache.overall_accesses::total    635550411                       # number of overall (read+write) accesses
system.cpu.icache.ReadReq_miss_rate::cpu.inst     0.001600                       # miss rate for ReadReq accesses
system.cpu.icache.ReadReq_miss_rate::total     0.001600                       # miss rate for ReadReq accesses
system.cpu.icache.demand_miss_rate::cpu.inst     0.001600                       # miss rate for demand accesses
system.cpu.icache.demand_miss_rate::total     0.001600                       # miss rate for demand accesses
system.cpu.icache.overall_miss_rate::cpu.inst     0.001600                       # miss rate for overall accesses
system.cpu.icache.overall_miss_rate::total     0.001600                       # miss rate for overall accesses
system.cpu.icache.blocked_cycles::no_mshrs            0                       # number of cycles access was blocked
system.cpu.icache.blocked_cycles::no_targets            0                       # number of cycles access was blocked
system.cpu.icache.blocked::no_mshrs                 0                       # number of cycles access was blocked
system.cpu.icache.blocked::no_targets               0                       # number of cycles access was blocked
system.cpu.icache.avg_blocked_cycles::no_mshrs          nan                       # average number of cycles each access was blocked
system.cpu.icache.avg_blocked_cycles::no_targets          nan                       # average number of cycles each access was blocked
system.cpu.icache.fast_writes                       0                       # number of fast writes performed
system.cpu.icache.cache_copies                      0                       # number of cache copies performed
system.cpu.icache.no_allocate_misses                0                       # Number of misses that were no-allocate
system.cpu.itb_walker_cache.tags.replacements         5035                       # number of replacements
system.cpu.itb_walker_cache.tags.tagsinuse     3.041274                       # Cycle average of tags in use
system.cpu.itb_walker_cache.tags.total_refs          689                       # Total number of references to valid blocks.
system.cpu.itb_walker_cache.tags.sampled_refs         5035                       # Sample count of references to valid blocks.
system.cpu.itb_walker_cache.tags.avg_refs     0.136842                       # Average number of references to valid blocks.
system.cpu.itb_walker_cache.tags.warmup_cycle 4819229035578                       # Cycle when the warmup percentage was hit.
system.cpu.itb_walker_cache.tags.occ_blocks::cpu.itb.walker     3.041274                       # Average occupied blocks per requestor
system.cpu.itb_walker_cache.tags.occ_percent::cpu.itb.walker     0.190080                       # Average percentage of cache occupancy
system.cpu.itb_walker_cache.tags.occ_percent::total     0.190080                       # Average percentage of cache occupancy
system.cpu.itb_walker_cache.tags.occ_task_id_blocks::1024           12                       # Occupied blocks per task id
system.cpu.itb_walker_cache.tags.age_task_id_blocks_1024::0            5                       # Occupied blocks per task id
system.cpu.itb_walker_cache.tags.age_task_id_blocks_1024::1            3                       # Occupied blocks per task id
system.cpu.itb_walker_cache.tags.age_task_id_blocks_1024::2            4                       # Occupied blocks per task id
system.cpu.itb_walker_cache.tags.occ_task_id_percent::1024     0.750000                       # Percentage of cache occupancy per task id
system.cpu.itb_walker_cache.tags.tag_accesses        18551                       # Number of tag accesses
system.cpu.itb_walker_cache.tags.data_accesses        18551                       # Number of data accesses
system.cpu.itb_walker_cache.ReadReq_hits::cpu.itb.walker          725                       # number of ReadReq hits
system.cpu.itb_walker_cache.ReadReq_hits::total          725                       # number of ReadReq hits
system.cpu.itb_walker_cache.WriteReq_hits::cpu.itb.walker            2                       # number of WriteReq hits
system.cpu.itb_walker_cache.WriteReq_hits::total            2                       # number of WriteReq hits
system.cpu.itb_walker_cache.demand_hits::cpu.itb.walker          727                       # number of demand (read+write) hits
system.cpu.itb_walker_cache.demand_hits::total          727                       # number of demand (read+write) hits
system.cpu.itb_walker_cache.overall_hits::cpu.itb.walker          727                       # number of overall hits
system.cpu.itb_walker_cache.overall_hits::total          727                       # number of overall hits
system.cpu.itb_walker_cache.ReadReq_misses::cpu.itb.walker         5699                       # number of ReadReq misses
system.cpu.itb_walker_cache.ReadReq_misses::total         5699                       # number of ReadReq misses
system.cpu.itb_walker_cache.demand_misses::cpu.itb.walker         5699                       # number of demand (read+write) misses
system.cpu.itb_walker_cache.demand_misses::total         5699                       # number of demand (read+write) misses
system.cpu.itb_walker_cache.overall_misses::cpu.itb.walker         5699                       # number of overall misses
system.cpu.itb_walker_cache.overall_misses::total         5699                       # number of overall misses
system.cpu.itb_walker_cache.ReadReq_accesses::cpu.itb.walker         6424                       # number of ReadReq accesses(hits+misses)
system.cpu.itb_walker_cache.ReadReq_accesses::total         6424                       # number of ReadReq accesses(hits+misses)
system.cpu.itb_walker_cache.WriteReq_accesses::cpu.itb.walker            2                       # number of WriteReq accesses(hits+misses)
system.cpu.itb_walker_cache.WriteReq_accesses::total            2                       # number of WriteReq accesses(hits+misses)
system.cpu.itb_walker_cache.demand_accesses::cpu.itb.walker         6426                       # number of demand (read+write) accesses
system.cpu.itb_walker_cache.demand_accesses::total         6426                       # number of demand (read+write) accesses
system.cpu.itb_walker_cache.overall_accesses::cpu.itb.walker         6426                       # number of overall (read+write) accesses
system.cpu.itb_walker_cache.overall_accesses::total         6426                       # number of overall (read+write) accesses
system.cpu.itb_walker_cache.ReadReq_miss_rate::cpu.itb.walker     0.887142                       # miss rate for ReadReq accesses
system.cpu.itb_walker_cache.ReadReq_miss_rate::total     0.887142                       # miss rate for ReadReq accesses
system.cpu.itb_walker_cache.demand_miss_rate::cpu.itb.walker     0.886866                       # miss rate for demand accesses
system.cpu.itb_walker_cache.demand_miss_rate::total     0.886866                       # miss rate for demand accesses
system.cpu.itb_walker_cache.overall_miss_rate::cpu.itb.walker     0.886866                       # miss rate for overall accesses
system.cpu.itb_walker_cache.overall_miss_rate::total     0.886866                       # miss rate for overall accesses
system.cpu.itb_walker_cache.blocked_cycles::no_mshrs            0                       # number of cycles access was blocked
system.cpu.itb_walker_cache.blocked_cycles::no_targets            0                       # number of cycles access was blocked
system.cpu.itb_walker_cache.blocked::no_mshrs            0                       # number of cycles access was blocked
system.cpu.itb_walker_cache.blocked::no_targets            0                       # number of cycles access was blocked
system.cpu.itb_walker_cache.avg_blocked_cycles::no_mshrs          nan                       # average number of cycles each access was blocked
system.cpu.itb_walker_cache.avg_blocked_cycles::no_targets          nan                       # average number of cycles each access was blocked
system.cpu.itb_walker_cache.fast_writes             0                       # number of fast writes performed
system.cpu.itb_walker_cache.cache_copies            0                       # number of cache copies performed
system.cpu.itb_walker_cache.writebacks::writebacks            2                       # number of writebacks
system.cpu.itb_walker_cache.writebacks::total            2                       # number of writebacks
system.cpu.itb_walker_cache.no_allocate_misses            0                       # Number of misses that were no-allocate
system.cpu.dtb_walker_cache.tags.replacements        12678                       # number of replacements
system.cpu.dtb_walker_cache.tags.tagsinuse     8.143428                       # Cycle average of tags in use
system.cpu.dtb_walker_cache.tags.total_refs         7165                       # Total number of references to valid blocks.
system.cpu.dtb_walker_cache.tags.sampled_refs        12678                       # Sample count of references to valid blocks.
system.cpu.dtb_walker_cache.tags.avg_refs     0.565152                       # Average number of references to valid blocks.
system.cpu.dtb_walker_cache.tags.warmup_cycle  34205003091                       # Cycle when the warmup percentage was hit.
system.cpu.dtb_walker_cache.tags.occ_blocks::cpu.dtb.walker     8.143428                       # Average occupied blocks per requestor
system.cpu.dtb_walker_cache.tags.occ_percent::cpu.dtb.walker     0.508964                       # Average percentage of cache occupancy
system.cpu.dtb_walker_cache.tags.occ_percent::total     0.508964                       # Average percentage of cache occupancy
system.cpu.dtb_walker_cache.tags.occ_task_id_blocks::1024           14                       # Occupied blocks per task id
system.cpu.dtb_walker_cache.tags.age_task_id_blocks_1024::0            5                       # Occupied blocks per task id
system.cpu.dtb_walker_cache.tags.age_task_id_blocks_1024::1            4                       # Occupied blocks per task id
system.cpu.dtb_walker_cache.tags.age_task_id_blocks_1024::2            5                       # Occupied blocks per task id
system.cpu.dtb_walker_cache.tags.occ_task_id_percent::1024     0.875000                       # Percentage of cache occupancy per task id
system.cpu.dtb_walker_cache.tags.tag_accesses        60955                       # Number of tag accesses
system.cpu.dtb_walker_cache.tags.data_accesses        60955                       # Number of data accesses
system.cpu.dtb_walker_cache.ReadReq_hits::cpu.dtb.walker         7274                       # number of ReadReq hits
system.cpu.dtb_walker_cache.ReadReq_hits::total         7274                       # number of ReadReq hits
system.cpu.dtb_walker_cache.demand_hits::cpu.dtb.walker         7274                       # number of demand (read+write) hits
system.cpu.dtb_walker_cache.demand_hits::total         7274                       # number of demand (read+write) hits
system.cpu.dtb_walker_cache.overall_hits::cpu.dtb.walker         7274                       # number of overall hits
system.cpu.dtb_walker_cache.overall_hits::total         7274                       # number of overall hits
system.cpu.dtb_walker_cache.ReadReq_misses::cpu.dtb.walker        15469                       # number of ReadReq misses
system.cpu.dtb_walker_cache.ReadReq_misses::total        15469                       # number of ReadReq misses
system.cpu.dtb_walker_cache.demand_misses::cpu.dtb.walker        15469                       # number of demand (read+write) misses
system.cpu.dtb_walker_cache.demand_misses::total        15469                       # number of demand (read+write) misses
system.cpu.dtb_walker_cache.overall_misses::cpu.dtb.walker        15469                       # number of overall misses
system.cpu.dtb_walker_cache.overall_misses::total        15469                       # number of overall misses
system.cpu.dtb_walker_cache.ReadReq_accesses::cpu.dtb.walker        22743                       # number of ReadReq accesses(hits+misses)
system.cpu.dtb_walker_cache.ReadReq_accesses::total        22743                       # number of ReadReq accesses(hits+misses)
system.cpu.dtb_walker_cache.demand_accesses::cpu.dtb.walker        22743                       # number of demand (read+write) accesses
system.cpu.dtb_walker_cache.demand_accesses::total        22743                       # number of demand (read+write) accesses
system.cpu.dtb_walker_cache.overall_accesses::cpu.dtb.walker        22743                       # number of overall (read+write) accesses
system.cpu.dtb_walker_cache.overall_accesses::total        22743                       # number of overall (read+write) accesses
system.cpu.dtb_walker_cache.ReadReq_miss_rate::cpu.dtb.walker     0.680165                       # miss rate for ReadReq accesses
system.cpu.dtb_walker_cache.ReadReq_miss_rate::total     0.680165                       # miss rate for ReadReq accesses
system.cpu.dtb_walker_cache.demand_miss_rate::cpu.dtb.walker     0.680165                       # miss rate for demand accesses
system.cpu.dtb_walker_cache.demand_miss_rate::total     0.680165                       # miss rate for demand accesses
system.cpu.dtb_walker_cache.overall_miss_rate::cpu.dtb.walker     0.680165                       # miss rate for overall accesses
system.cpu.dtb_walker_cache.overall_miss_rate::total     0.680165                       # miss rate for overall accesses
system.cpu.dtb_walker_cache.blocked_cycles::no_mshrs            0                       # number of cycles access was blocked
system.cpu.dtb_walker_cache.blocked_cycles::no_targets            0                       # number of cycles access was blocked
system.cpu.dtb_walker_cache.blocked::no_mshrs            0                       # number of cycles access was blocked
system.cpu.dtb_walker_cache.blocked::no_targets            0                       # number of cycles access was blocked
system.cpu.dtb_walker_cache.avg_blocked_cycles::no_mshrs          nan                       # average number of cycles each access was blocked
system.cpu.dtb_walker_cache.avg_blocked_cycles::no_targets          nan                       # average number of cycles each access was blocked
system.cpu.dtb_walker_cache.fast_writes             0                       # number of fast writes performed
system.cpu.dtb_walker_cache.cache_copies            0                       # number of cache copies performed
system.cpu.dtb_walker_cache.no_allocate_misses            0                       # Number of misses that were no-allocate
system.cpu.dcache.tags.replacements           6529234                       # number of replacements
system.cpu.dcache.tags.tagsinuse          1023.985563                       # Cycle average of tags in use
system.cpu.dcache.tags.total_refs           146396556                       # Total number of references to valid blocks.
system.cpu.dcache.tags.sampled_refs           6529234                       # Sample count of references to valid blocks.
system.cpu.dcache.tags.avg_refs             22.421705                       # Average number of references to valid blocks.
system.cpu.dcache.tags.warmup_cycle          84393522                       # Cycle when the warmup percentage was hit.
system.cpu.dcache.tags.occ_blocks::cpu.data  1023.985563                       # Average occupied blocks per requestor
system.cpu.dcache.tags.occ_percent::cpu.data     0.999986                       # Average percentage of cache occupancy
system.cpu.dcache.tags.occ_percent::total     0.999986                       # Average percentage of cache occupancy
system.cpu.dcache.tags.occ_task_id_blocks::1024         1024                       # Occupied blocks per task id
system.cpu.dcache.tags.age_task_id_blocks_1024::0          179                       # Occupied blocks per task id
system.cpu.dcache.tags.age_task_id_blocks_1024::1          805                       # Occupied blocks per task id
system.cpu.dcache.tags.age_task_id_blocks_1024::2           40                       # Occupied blocks per task id
system.cpu.dcache.tags.occ_task_id_percent::1024            1                       # Percentage of cache occupancy per task id
system.cpu.dcache.tags.tag_accesses         312484078                       # Number of tag accesses
system.cpu.dcache.tags.data_accesses        312484078                       # Number of data accesses
system.cpu.dcache.ReadReq_hits::cpu.data    123254016                       # number of ReadReq hits
system.cpu.dcache.ReadReq_hits::total       123254016                       # number of ReadReq hits
system.cpu.dcache.WriteReq_hits::cpu.data     23140093                       # number of WriteReq hits
system.cpu.dcache.WriteReq_hits::total       23140093                       # number of WriteReq hits
system.cpu.dcache.SoftPFReq_hits::cpu.data        48818                       # number of SoftPFReq hits
system.cpu.dcache.SoftPFReq_hits::total         48818                       # number of SoftPFReq hits
system.cpu.dcache.demand_hits::cpu.data     146394109                       # number of demand (read+write) hits
system.cpu.dcache.demand_hits::total        146394109                       # number of demand (read+write) hits
system.cpu.dcache.overall_hits::cpu.data    146442927                       # number of overall hits
system.cpu.dcache.overall_hits::total       146442927                       # number of overall hits
system.cpu.dcache.ReadReq_misses::cpu.data      6019625                       # number of ReadReq misses
system.cpu.dcache.ReadReq_misses::total       6019625                       # number of ReadReq misses
system.cpu.dcache.WriteReq_misses::cpu.data       402757                       # number of WriteReq misses
system.cpu.dcache.WriteReq_misses::total       402757                       # number of WriteReq misses
system.cpu.dcache.SoftPFReq_misses::cpu.data       111513                       # number of SoftPFReq misses
system.cpu.dcache.SoftPFReq_misses::total       111513                       # number of SoftPFReq misses
system.cpu.dcache.demand_misses::cpu.data      6422382                       # number of demand (read+write) misses
system.cpu.dcache.demand_misses::total        6422382                       # number of demand (read+write) misses
system.cpu.dcache.overall_misses::cpu.data      6533895                       # number of overall misses
system.cpu.dcache.overall_misses::total       6533895                       # number of overall misses
system.cpu.dcache.ReadReq_accesses::cpu.data    129273641                       # number of ReadReq accesses(hits+misses)
system.cpu.dcache.ReadReq_accesses::total    129273641                       # number of ReadReq accesses(hits+misses)
system.cpu.dcache.WriteReq_accesses::cpu.data     23542850                       # number of WriteReq accesses(hits+misses)
system.cpu.dcache.WriteReq_accesses::total     23542850                       # number of WriteReq accesses(hits+misses)
system.cpu.dcache.SoftPFReq_accesses::cpu.data       160331                       # number of SoftPFReq accesses(hits+misses)
system.cpu.dcache.SoftPFReq_accesses::total       160331                       # number of SoftPFReq accesses(hits+misses)
system.cpu.dcache.demand_accesses::cpu.data    152816491                       # number of demand (read+write) accesses
system.cpu.dcache.demand_accesses::total    152816491                       # number of demand (read+write) accesses
system.cpu.dcache.overall_accesses::cpu.data    152976822                       # number of overall (read+write) accesses
system.cpu.dcache.overall_accesses::total    152976822                       # number of overall (read+write) accesses
system.cpu.dcache.ReadReq_miss_rate::cpu.data     0.046565                       # miss rate for ReadReq accesses
system.cpu.dcache.ReadReq_miss_rate::total     0.046565                       # miss rate for ReadReq accesses
system.cpu.dcache.WriteReq_miss_rate::cpu.data     0.017107                       # miss rate for WriteReq accesses
system.cpu.dcache.WriteReq_miss_rate::total     0.017107                       # miss rate for WriteReq accesses
system.cpu.dcache.SoftPFReq_miss_rate::cpu.data     0.695517                       # miss rate for SoftPFReq accesses
system.cpu.dcache.SoftPFReq_miss_rate::total     0.695517                       # miss rate for SoftPFReq accesses
system.cpu.dcache.demand_miss_rate::cpu.data     0.042027                       # miss rate for demand accesses
system.cpu.dcache.demand_miss_rate::total     0.042027                       # miss rate for demand accesses
[...]
system.cpu.itb_walker_cache.ReadReq_misses::cpu.itb.walker          422                       # number of ReadReq misses
system.cpu.itb_walker_cache.ReadReq_misses::total          422                       # number of ReadReq misses
system.cpu.itb_walker_cache.demand_misses::cpu.itb.walker          422                       # number of demand (read+write) misses
system.cpu.itb_walker_cache.demand_misses::total          422                       # number of demand (read+write) misses
system.cpu.itb_walker_cache.overall_misses::cpu.itb.walker          422                       # number of overall misses
system.cpu.itb_walker_cache.overall_misses::total          422                       # number of overall misses
system.cpu.itb_walker_cache.ReadReq_accesses::cpu.itb.walker          462                       # number of ReadReq accesses(hits+misses)
system.cpu.itb_walker_cache.ReadReq_accesses::total          462                       # number of ReadReq accesses(hits+misses)
system.cpu.itb_walker_cache.demand_accesses::cpu.itb.walker          462                       # number of demand (read+write) accesses
system.cpu.itb_walker_cache.demand_accesses::total          462                       # number of demand (read+write) accesses
system.cpu.itb_walker_cache.overall_accesses::cpu.itb.walker          462                       # number of overall (read+write) accesses
system.cpu.itb_walker_cache.overall_accesses::total          462                       # number of overall (read+write) accesses
system.cpu.itb_walker_cache.ReadReq_miss_rate::cpu.itb.walker     0.913420                       # miss rate for ReadReq accesses
system.cpu.itb_walker_cache.ReadReq_miss_rate::total     0.913420                       # miss rate for ReadReq accesses
system.cpu.itb_walker_cache.demand_miss_rate::cpu.itb.walker     0.913420                       # miss rate for demand accesses
system.cpu.itb_walker_cache.demand_miss_rate::total     0.913420                       # miss rate for demand accesses
system.cpu.itb_walker_cache.overall_miss_rate::cpu.itb.walker     0.913420                       # miss rate for overall accesses
system.cpu.itb_walker_cache.overall_miss_rate::total     0.913420                       # miss rate for overall accesses
system.cpu.itb_walker_cache.blocked_cycles::no_mshrs            0                       # number of cycles access was blocked
system.cpu.itb_walker_cache.blocked_cycles::no_targets            0                       # number of cycles access was blocked
system.cpu.itb_walker_cache.blocked::no_mshrs            0                       # number of cycles access was blocked
system.cpu.itb_walker_cache.blocked::no_targets            0                       # number of cycles access was blocked
system.cpu.itb_walker_cache.avg_blocked_cycles::no_mshrs          nan                       # average number of cycles each access was blocked
system.cpu.itb_walker_cache.avg_blocked_cycles::no_targets          nan                       # average number of cycles each access was blocked
system.cpu.itb_walker_cache.fast_writes             0                       # number of fast writes performed
system.cpu.itb_walker_cache.cache_copies            0                       # number of cache copies performed
system.cpu.itb_walker_cache.no_allocate_misses            0                       # Number of misses that were no-allocate
system.cpu.dtb_walker_cache.tags.replacements          209                       # number of replacements
system.cpu.dtb_walker_cache.tags.tagsinuse    10.397274                       # Cycle average of tags in use
system.cpu.dtb_walker_cache.tags.total_refs           77                       # Total number of references to valid blocks.
system.cpu.dtb_walker_cache.tags.sampled_refs          221                       # Sample count of references to valid blocks.
system.cpu.dtb_walker_cache.tags.avg_refs     0.348416                       # Average number of references to valid blocks.
system.cpu.dtb_walker_cache.tags.warmup_cycle            0                       # Cycle when the warmup percentage was hit.
system.cpu.dtb_walker_cache.tags.occ_blocks::cpu.dtb.walker    10.397274                       # Average occupied blocks per requestor
system.cpu.dtb_walker_cache.tags.occ_percent::cpu.dtb.walker     0.649830                       # Average percentage of cache occupancy
system.cpu.dtb_walker_cache.tags.occ_percent::total     0.649830                       # Average percentage of cache occupancy
system.cpu.dtb_walker_cache.tags.occ_task_id_blocks::1024           12                       # Occupied blocks per task id
system.cpu.dtb_walker_cache.tags.age_task_id_blocks_1024::0            4                       # Occupied blocks per task id
system.cpu.dtb_walker_cache.tags.age_task_id_blocks_1024::1            4                       # Occupied blocks per task id
system.cpu.dtb_walker_cache.tags.age_task_id_blocks_1024::2            3                       # Occupied blocks per task id
system.cpu.dtb_walker_cache.tags.age_task_id_blocks_1024::3            1                       # Occupied blocks per task id
system.cpu.dtb_walker_cache.tags.occ_task_id_percent::1024     0.750000                       # Percentage of cache occupancy per task id
system.cpu.dtb_walker_cache.tags.tag_accesses          889                       # Number of tag accesses
system.cpu.dtb_walker_cache.tags.data_accesses          889                       # Number of data accesses
system.cpu.dtb_walker_cache.ReadReq_hits::cpu.dtb.walker           50                       # number of ReadReq hits
system.cpu.dtb_walker_cache.ReadReq_hits::total           50                       # number of ReadReq hits
system.cpu.dtb_walker_cache.demand_hits::cpu.dtb.walker           50                       # number of demand (read+write) hits
system.cpu.dtb_walker_cache.demand_hits::total           50                       # number of demand (read+write) hits
system.cpu.dtb_walker_cache.overall_hits::cpu.dtb.walker           50                       # number of overall hits
system.cpu.dtb_walker_cache.overall_hits::total           50                       # number of overall hits
system.cpu.dtb_walker_cache.ReadReq_misses::cpu.dtb.walker          263                       # number of ReadReq misses
system.cpu.dtb_walker_cache.ReadReq_misses::total          263                       # number of ReadReq misses
system.cpu.dtb_walker_cache.demand_misses::cpu.dtb.walker          263                       # number of demand (read+write) misses
system.cpu.dtb_walker_cache.demand_misses::total          263                       # number of demand (read+write) misses
system.cpu.dtb_walker_cache.overall_misses::cpu.dtb.walker          263                       # number of overall misses
system.cpu.dtb_walker_cache.overall_misses::total          263                       # number of overall misses
system.cpu.dtb_walker_cache.ReadReq_accesses::cpu.dtb.walker          313                       # number of ReadReq accesses(hits+misses)
system.cpu.dtb_walker_cache.ReadReq_accesses::total          313                       # number of ReadReq accesses(hits+misses)
system.cpu.dtb_walker_cache.demand_accesses::cpu.dtb.walker          313                       # number of demand (read+write) accesses
system.cpu.dtb_walker_cache.demand_accesses::total          313                       # number of demand (read+write) accesses
system.cpu.dtb_walker_cache.overall_accesses::cpu.dtb.walker          313                       # number of overall (read+write) accesses
system.cpu.dtb_walker_cache.overall_accesses::total          313                       # number of overall (read+write) accesses
system.cpu.dtb_walker_cache.ReadReq_miss_rate::cpu.dtb.walker     0.840256                       # miss rate for ReadReq accesses
system.cpu.dtb_walker_cache.ReadReq_miss_rate::total     0.840256                       # miss rate for ReadReq accesses
system.cpu.dtb_walker_cache.demand_miss_rate::cpu.dtb.walker     0.840256                       # miss rate for demand accesses
system.cpu.dtb_walker_cache.demand_miss_rate::total     0.840256                       # miss rate for demand accesses
system.cpu.dtb_walker_cache.overall_miss_rate::cpu.dtb.walker     0.840256                       # miss rate for overall accesses
system.cpu.dtb_walker_cache.overall_miss_rate::total     0.840256                       # miss rate for overall accesses
system.cpu.dtb_walker_cache.blocked_cycles::no_mshrs            0                       # number of cycles access was blocked
system.cpu.dtb_walker_cache.blocked_cycles::no_targets            0                       # number of cycles access was blocked
system.cpu.dtb_walker_cache.blocked::no_mshrs            0                       # number of cycles access was blocked
system.cpu.dtb_walker_cache.blocked::no_targets            0                       # number of cycles access was blocked
system.cpu.dtb_walker_cache.avg_blocked_cycles::no_mshrs          nan                       # average number of cycles each access was blocked
system.cpu.dtb_walker_cache.avg_blocked_cycles::no_targets          nan                       # average number of cycles each access was blocked
system.cpu.dtb_walker_cache.fast_writes             0                       # number of fast writes performed
system.cpu.dtb_walker_cache.cache_copies            0                       # number of cache copies performed
system.cpu.dtb_walker_cache.no_allocate_misses            0                       # Number of misses that were no-allocate
system.cpu.dcache.tags.replacements              4526                       # number of replacements
system.cpu.dcache.tags.tagsinuse                 1024                       # Cycle average of tags in use
system.cpu.dcache.tags.total_refs              166914                       # Total number of references to valid blocks.
system.cpu.dcache.tags.sampled_refs              5550                       # Sample count of references to valid blocks.
system.cpu.dcache.tags.avg_refs             30.074595                       # Average number of references to valid blocks.
system.cpu.dcache.tags.warmup_cycle                 0                       # Cycle when the warmup percentage was hit.
system.cpu.dcache.tags.occ_blocks::cpu.data         1024                       # Average occupied blocks per requestor
system.cpu.dcache.tags.occ_percent::cpu.data            1                       # Average percentage of cache occupancy
system.cpu.dcache.tags.occ_percent::total            1                       # Average percentage of cache occupancy
system.cpu.dcache.tags.occ_task_id_blocks::1024         1024                       # Occupied blocks per task id
system.cpu.dcache.tags.age_task_id_blocks_1024::0          181                       # Occupied blocks per task id
system.cpu.dcache.tags.age_task_id_blocks_1024::1          832                       # Occupied blocks per task id
system.cpu.dcache.tags.age_task_id_blocks_1024::2            9                       # Occupied blocks per task id
system.cpu.dcache.tags.age_task_id_blocks_1024::3            2                       # Occupied blocks per task id
system.cpu.dcache.tags.occ_task_id_percent::1024            1                       # Percentage of cache occupancy per task id
system.cpu.dcache.tags.tag_accesses            193706                       # Number of tag accesses
system.cpu.dcache.tags.data_accesses           193706                       # Number of data accesses
system.cpu.dcache.ReadReq_hits::cpu.data        44378                       # number of ReadReq hits
system.cpu.dcache.ReadReq_hits::total           44378                       # number of ReadReq hits
system.cpu.dcache.WriteReq_hits::cpu.data        45328                       # number of WriteReq hits
system.cpu.dcache.WriteReq_hits::total          45328                       # number of WriteReq hits
system.cpu.dcache.SoftPFReq_hits::cpu.data          241                       # number of SoftPFReq hits
system.cpu.dcache.SoftPFReq_hits::total           241                       # number of SoftPFReq hits
system.cpu.dcache.demand_hits::cpu.data         89706                       # number of demand (read+write) hits
system.cpu.dcache.demand_hits::total            89706                       # number of demand (read+write) hits
system.cpu.dcache.overall_hits::cpu.data        89947                       # number of overall hits
system.cpu.dcache.overall_hits::total           89947                       # number of overall hits
system.cpu.dcache.ReadReq_misses::cpu.data         1273                       # number of ReadReq misses
system.cpu.dcache.ReadReq_misses::total          1273                       # number of ReadReq misses
system.cpu.dcache.WriteReq_misses::cpu.data         2755                       # number of WriteReq misses
system.cpu.dcache.WriteReq_misses::total         2755                       # number of WriteReq misses
system.cpu.dcache.SoftPFReq_misses::cpu.data          615                       # number of SoftPFReq misses
system.cpu.dcache.SoftPFReq_misses::total          615                       # number of SoftPFReq misses
system.cpu.dcache.demand_misses::cpu.data         4028                       # number of demand (read+write) misses
system.cpu.dcache.demand_misses::total           4028                       # number of demand (read+write) misses
system.cpu.dcache.overall_misses::cpu.data         4643                       # number of overall misses
system.cpu.dcache.overall_misses::total          4643                       # number of overall misses
system.cpu.dcache.ReadReq_accesses::cpu.data        45651                       # number of ReadReq accesses(hits+misses)
system.cpu.dcache.ReadReq_accesses::total        45651                       # number of ReadReq accesses(hits+misses)
system.cpu.dcache.WriteReq_accesses::cpu.data        48083                       # number of WriteReq accesses(hits+misses)
system.cpu.dcache.WriteReq_accesses::total        48083                       # number of WriteReq accesses(hits+misses)
system.cpu.dcache.SoftPFReq_accesses::cpu.data          856                       # number of SoftPFReq accesses(hits+misses)
system.cpu.dcache.SoftPFReq_accesses::total          856                       # number of SoftPFReq accesses(hits+misses)
system.cpu.dcache.demand_accesses::cpu.data        93734                       # number of demand (read+write) accesses
system.cpu.dcache.demand_accesses::total        93734                       # number of demand (read+write) accesses
system.cpu.dcache.overall_accesses::cpu.data        94590                       # number of overall (read+write) accesses
system.cpu.dcache.overall_accesses::total        94590                       # number of overall (read+write) accesses
system.cpu.dcache.ReadReq_miss_rate::cpu.data     0.027885                       # miss rate for ReadReq accesses
system.cpu.dcache.ReadReq_miss_rate::total     0.027885                       # miss rate for ReadReq accesses
system.cpu.dcache.WriteReq_miss_rate::cpu.data     0.057297                       # miss rate for WriteReq accesses
system.cpu.dcache.WriteReq_miss_rate::total     0.057297                       # miss rate for WriteReq accesses
system.cpu.dcache.SoftPFReq_miss_rate::cpu.data     0.718458                       # miss rate for SoftPFReq accesses
system.cpu.dcache.SoftPFReq_miss_rate::total     0.718458                       # miss rate for SoftPFReq accesses
system.cpu.dcache.demand_miss_rate::cpu.data     0.042973                       # miss rate for demand accesses
system.cpu.dcache.demand_miss_rate::total     0.042973                       # miss rate for demand accesses
system.cpu.dcache.overall_miss_rate::cpu.data     0.049086                       # miss rate for overall accesses
system.cpu.dcache.overall_miss_rate::total     0.049086                       # miss rate for overall accesses
system.cpu.dcache.blocked_cycles::no_mshrs            0                       # number of cycles access was blocked
system.cpu.dcache.blocked_cycles::no_targets            0                       # number of cycles access was blocked
system.cpu.dcache.blocked::no_mshrs                 0                       # number of cycles access was blocked
system.cpu.dcache.blocked::no_targets               0                       # number of cycles access was blocked
system.cpu.dcache.avg_blocked_cycles::no_mshrs          nan                       # average number of cycles each access was blocked
system.cpu.dcache.avg_blocked_cycles::no_targets          nan                       # average number of cycles each access was blocked
system.cpu.dcache.fast_writes                       0                       # number of fast writes performed
system.cpu.dcache.cache_copies                      0                       # number of cache copies performed
system.cpu.dcache.writebacks::writebacks         3118                       # number of writebacks
system.cpu.dcache.writebacks::total              3118                       # number of writebacks
system.cpu.dcache.no_allocate_misses                0                       # Number of misses that were no-allocate
system.iocache.tags.replacements                    0                       # number of replacements
system.iocache.tags.tagsinuse                      16                       # Cycle average of tags in use
system.iocache.tags.total_refs                      0                       # Total number of references to valid blocks.
system.iocache.tags.sampled_refs                   16                       # Sample count of references to valid blocks.
system.iocache.tags.avg_refs                        0                       # Average number of references to valid blocks.
system.iocache.tags.warmup_cycle                    0                       # Cycle when the warmup percentage was hit.
system.iocache.tags.occ_blocks::pc.south_bridge.ide           16                       # Average occupied blocks per requestor
system.iocache.tags.occ_percent::pc.south_bridge.ide            1                       # Average percentage of cache occupancy
system.iocache.tags.occ_percent::total              1                       # Average percentage of cache occupancy
system.iocache.tags.occ_task_id_blocks::1023           16                       # Occupied blocks per task id
system.iocache.tags.age_task_id_blocks_1023::4           16                       # Occupied blocks per task id
system.iocache.tags.occ_task_id_percent::1023            1                       # Percentage of cache occupancy per task id
system.iocache.tags.tag_accesses                    0                       # Number of tag accesses
system.iocache.tags.data_accesses                   0                       # Number of data accesses
system.iocache.blocked_cycles::no_mshrs             0                       # number of cycles access was blocked
system.iocache.blocked_cycles::no_targets            0                       # number of cycles access was blocked
system.iocache.blocked::no_mshrs                    0                       # number of cycles access was blocked
system.iocache.blocked::no_targets                  0                       # number of cycles access was blocked
system.iocache.avg_blocked_cycles::no_mshrs          nan                       # average number of cycles each access was blocked
system.iocache.avg_blocked_cycles::no_targets          nan                       # average number of cycles each access was blocked
system.iocache.fast_writes                          0                       # number of fast writes performed
system.iocache.cache_copies                         0                       # number of cache copies performed
system.iocache.no_allocate_misses                   0                       # Number of misses that were no-allocate

---------- End Simulation Statistics   ----------
