
---------- Begin Simulation Statistics ----------
sim_seconds                                  2.577388                       # Number of seconds simulated
sim_ticks                                2577387992900                       # Number of ticks simulated
final_tick                               2577387992900                       # Number of ticks from beginning of simulation (restored from checkpoints and never reset)
sim_freq                                 1000000000000                       # Frequency of simulated ticks
host_inst_rate                                 232024                       # Simulator instruction rate (inst/s)
host_op_rate                                   232024                       # Simulator op (including micro ops) rate (op/s)
host_tick_rate                             6682390816                       # Simulator tick rate (ticks/s)
host_mem_usage                                 458480                       # Number of bytes of host memory used
host_seconds                                   385.70                       # Real time elapsed on the host
sim_insts                                    89491324                       # Number of instructions simulated
sim_ops                                      89491324                       # Number of ops (including micro ops) simulated
system.voltage_domain.voltage                       1                       # Voltage in Volts
system.clk_domain.clock                          1000                       # Clock period in ticks
system.mem_ctrls.bytes_read::cpu.inst        92244160                       # Number of bytes read from this memory
system.mem_ctrls.bytes_read::cpu.data       184481600                       # Number of bytes read from this memory
system.mem_ctrls.bytes_read::tsunami.ide         4736                       # Number of bytes read from this memory
system.mem_ctrls.bytes_read::total          276730496                       # Number of bytes read from this memory
system.mem_ctrls.bytes_inst_read::cpu.inst     92244160                       # Number of instructions bytes read from this memory
system.mem_ctrls.bytes_inst_read::total      92244160                       # Number of instructions bytes read from this memory
system.mem_ctrls.bytes_written::writebacks     31698944                       # Number of bytes written to this memory
system.mem_ctrls.bytes_written::tsunami.ide      2832384                       # Number of bytes written to this memory
system.mem_ctrls.bytes_written::total        34531328                       # Number of bytes written to this memory
system.mem_ctrls.num_reads::cpu.inst          1441315                       # Number of read requests responded to by this memory
system.mem_ctrls.num_reads::cpu.data          2882525                       # Number of read requests responded to by this memory
system.mem_ctrls.num_reads::tsunami.ide            74                       # Number of read requests responded to by this memory
system.mem_ctrls.num_reads::total             4323914                       # Number of read requests responded to by this memory
system.mem_ctrls.num_writes::writebacks        495296                       # Number of write requests responded to by this memory
system.mem_ctrls.num_writes::tsunami.ide        44256                       # Number of write requests responded to by this memory
system.mem_ctrls.num_writes::total             539552                       # Number of write requests responded to by this memory
system.mem_ctrls.bw_read::cpu.inst           35789784                       # Total read bandwidth from this memory (bytes/s)
system.mem_ctrls.bw_read::cpu.data           71576961                       # Total read bandwidth from this memory (bytes/s)
system.mem_ctrls.bw_read::tsunami.ide            1838                       # Total read bandwidth from this memory (bytes/s)
system.mem_ctrls.bw_read::total             107368583                       # Total read bandwidth from this memory (bytes/s)
system.mem_ctrls.bw_inst_read::cpu.inst      35789784                       # Instruction read bandwidth from this memory (bytes/s)
system.mem_ctrls.bw_inst_read::total         35789784                       # Instruction read bandwidth from this memory (bytes/s)
system.mem_ctrls.bw_write::writebacks        12298864                       # Write bandwidth from this memory (bytes/s)
system.mem_ctrls.bw_write::tsunami.ide        1098936                       # Write bandwidth from this memory (bytes/s)
system.mem_ctrls.bw_write::total             13397800                       # Write bandwidth from this memory (bytes/s)
system.mem_ctrls.bw_total::writebacks        12298864                       # Total bandwidth to/from this memory (bytes/s)
system.mem_ctrls.bw_total::cpu.inst          35789784                       # Total bandwidth to/from this memory (bytes/s)
system.mem_ctrls.bw_total::cpu.data          71576961                       # Total bandwidth to/from this memory (bytes/s)
system.mem_ctrls.bw_total::tsunami.ide        1100773                       # Total bandwidth to/from this memory (bytes/s)
system.mem_ctrls.bw_total::total            120766382                       # Total bandwidth to/from this memory (bytes/s)
system.mem_ctrls.readReqs                     4323914                       # Number of read requests accepted
system.mem_ctrls.writeReqs                     539552                       # Number of write requests accepted
system.mem_ctrls.readBursts                   4323914                       # Number of DRAM read bursts, including those serviced by the write queue
system.mem_ctrls.writeBursts                   539552                       # Number of DRAM write bursts, including those merged in the write queue
system.mem_ctrls.bytesReadDRAM              274366848                       # Total number of bytes read from DRAM
system.mem_ctrls.bytesReadWrQ                 2363648                       # Total number of bytes read from write queue
system.mem_ctrls.bytesWritten                34116032                       # Total number of bytes written to DRAM
system.mem_ctrls.bytesReadSys               276730496                       # Total read bytes from the system interface side
system.mem_ctrls.bytesWrittenSys             34531328                       # Total written bytes from the system interface side
system.mem_ctrls.servicedByWrQ                  36932                       # Number of DRAM read bursts serviced by the write queue
system.mem_ctrls.mergedWrBursts                  6467                       # Number of DRAM write bursts merged with an existing one
system.mem_ctrls.neitherReadNorWriteReqs          881                       # Number of requests that are neither read nor write
system.mem_ctrls.perBankRdBursts::0            290782                       # Per bank write bursts
system.mem_ctrls.perBankRdBursts::1            264513                       # Per bank write bursts
system.mem_ctrls.perBankRdBursts::2            242027                       # Per bank write bursts
system.mem_ctrls.perBankRdBursts::3            177715                       # Per bank write bursts
system.mem_ctrls.perBankRdBursts::4            162909                       # Per bank write bursts
system.mem_ctrls.perBankRdBursts::5            284917                       # Per bank write bursts
system.mem_ctrls.perBankRdBursts::6            287417                       # Per bank write bursts
system.mem_ctrls.perBankRdBursts::7            193027                       # Per bank write bursts
system.mem_ctrls.perBankRdBursts::8            273960                       # Per bank write bursts
system.mem_ctrls.perBankRdBursts::9            328554                       # Per bank write bursts
system.mem_ctrls.perBankRdBursts::10           320137                       # Per bank write bursts
system.mem_ctrls.perBankRdBursts::11           311457                       # Per bank write bursts
system.mem_ctrls.perBankRdBursts::12           328780                       # Per bank write bursts
system.mem_ctrls.perBankRdBursts::13           317298                       # Per bank write bursts
system.mem_ctrls.perBankRdBursts::14           287013                       # Per bank write bursts
system.mem_ctrls.perBankRdBursts::15           216476                       # Per bank write bursts
system.mem_ctrls.perBankWrBursts::0             20131                       # Per bank write bursts
system.mem_ctrls.perBankWrBursts::1             35531                       # Per bank write bursts
system.mem_ctrls.perBankWrBursts::2             26860                       # Per bank write bursts
system.mem_ctrls.perBankWrBursts::3             22268                       # Per bank write bursts
system.mem_ctrls.perBankWrBursts::4             18413                       # Per bank write bursts
system.mem_ctrls.perBankWrBursts::5             18027                       # Per bank write bursts
system.mem_ctrls.perBankWrBursts::6             46409                       # Per bank write bursts
system.mem_ctrls.perBankWrBursts::7             29742                       # Per bank write bursts
system.mem_ctrls.perBankWrBursts::8             30035                       # Per bank write bursts
system.mem_ctrls.perBankWrBursts::9             32350                       # Per bank write bursts
system.mem_ctrls.perBankWrBursts::10            32826                       # Per bank write bursts
system.mem_ctrls.perBankWrBursts::11            59447                       # Per bank write bursts
system.mem_ctrls.perBankWrBursts::12            29660                       # Per bank write bursts
system.mem_ctrls.perBankWrBursts::13            44829                       # Per bank write bursts
system.mem_ctrls.perBankWrBursts::14            57177                       # Per bank write bursts
system.mem_ctrls.perBankWrBursts::15            29358                       # Per bank write bursts
system.mem_ctrls.numRdRetry                         0                       # Number of times read queue was full causing retry
system.mem_ctrls.numWrRetry                        30                       # Number of times write queue was full causing retry
system.mem_ctrls.totGap                  2577387916625                       # Total gap between requests
system.mem_ctrls.readPktSize::0                     0                       # Read request sizes (log2)
system.mem_ctrls.readPktSize::1                     0                       # Read request sizes (log2)
system.mem_ctrls.readPktSize::2                     0                       # Read request sizes (log2)
system.mem_ctrls.readPktSize::3                     0                       # Read request sizes (log2)
system.mem_ctrls.readPktSize::4                     0                       # Read request sizes (log2)
system.mem_ctrls.readPktSize::5                     0                       # Read request sizes (log2)
system.mem_ctrls.readPktSize::6               4323914                       # Read request sizes (log2)
system.mem_ctrls.writePktSize::0                    0                       # Write request sizes (log2)
system.mem_ctrls.writePktSize::1                    0                       # Write request sizes (log2)
system.mem_ctrls.writePktSize::2                    0                       # Write request sizes (log2)
system.mem_ctrls.writePktSize::3                    0                       # Write request sizes (log2)
system.mem_ctrls.writePktSize::4                    0                       # Write request sizes (log2)
system.mem_ctrls.writePktSize::5                    0                       # Write request sizes (log2)
system.mem_ctrls.writePktSize::6               539552                       # Write request sizes (log2)
system.mem_ctrls.rdQLenPdf::0                 3351857                       # What read queue length does an incoming req see
system.mem_ctrls.rdQLenPdf::1                  793797                       # What read queue length does an incoming req see
system.mem_ctrls.rdQLenPdf::2                  119703                       # What read queue length does an incoming req see
system.mem_ctrls.rdQLenPdf::3                   20482                       # What read queue length does an incoming req see
system.mem_ctrls.rdQLenPdf::4                    1082                       # What read queue length does an incoming req see
system.mem_ctrls.rdQLenPdf::5                      38                       # What read queue length does an incoming req see
system.mem_ctrls.rdQLenPdf::6                       6                       # What read queue length does an incoming req see
system.mem_ctrls.rdQLenPdf::7                       3                       # What read queue length does an incoming req see
system.mem_ctrls.rdQLenPdf::8                       2                       # What read queue length does an incoming req see
system.mem_ctrls.rdQLenPdf::9                       1                       # What read queue length does an incoming req see
system.mem_ctrls.rdQLenPdf::10                      1                       # What read queue length does an incoming req see
system.mem_ctrls.rdQLenPdf::11                      2                       # What read queue length does an incoming req see
system.mem_ctrls.rdQLenPdf::12                      1                       # What read queue length does an incoming req see
system.mem_ctrls.rdQLenPdf::13                      1                       # What read queue length does an incoming req see
system.mem_ctrls.rdQLenPdf::14                      2                       # What read queue length does an incoming req see
system.mem_ctrls.rdQLenPdf::15                      1                       # What read queue length does an incoming req see
system.mem_ctrls.rdQLenPdf::16                      1                       # What read queue length does an incoming req see
system.mem_ctrls.rdQLenPdf::17                      1                       # What read queue length does an incoming req see
system.mem_ctrls.rdQLenPdf::18                      1                       # What read queue length does an incoming req see
system.mem_ctrls.rdQLenPdf::19                      0                       # What read queue length does an incoming req see
system.mem_ctrls.rdQLenPdf::20                      0                       # What read queue length does an incoming req see
system.mem_ctrls.rdQLenPdf::21                      0                       # What read queue length does an incoming req see
system.mem_ctrls.rdQLenPdf::22                      0                       # What read queue length does an incoming req see
system.mem_ctrls.rdQLenPdf::23                      0                       # What read queue length does an incoming req see
system.mem_ctrls.rdQLenPdf::24                      0                       # What read queue length does an incoming req see
system.mem_ctrls.rdQLenPdf::25                      0                       # What read queue length does an incoming req see
system.mem_ctrls.rdQLenPdf::26                      0                       # What read queue length does an incoming req see
system.mem_ctrls.rdQLenPdf::27                      0                       # What read queue length does an incoming req see
system.mem_ctrls.rdQLenPdf::28                      0                       # What read queue length does an incoming req see
system.mem_ctrls.rdQLenPdf::29                      0                       # What read queue length does an incoming req see
system.mem_ctrls.rdQLenPdf::30                      0                       # What read queue length does an incoming req see
system.mem_ctrls.rdQLenPdf::31                      0                       # What read queue length does an incoming req see
system.mem_ctrls.wrQLenPdf::0                       1                       # What write queue length does an incoming req see
system.mem_ctrls.wrQLenPdf::1                       1                       # What write queue length does an incoming req see
system.mem_ctrls.wrQLenPdf::2                       1                       # What write queue length does an incoming req see
system.mem_ctrls.wrQLenPdf::3                       1                       # What write queue length does an incoming req see
system.mem_ctrls.wrQLenPdf::4                       1                       # What write queue length does an incoming req see
system.mem_ctrls.wrQLenPdf::5                       1                       # What write queue length does an incoming req see
system.mem_ctrls.wrQLenPdf::6                       1                       # What write queue length does an incoming req see
system.mem_ctrls.wrQLenPdf::7                       1                       # What write queue length does an incoming req see
system.mem_ctrls.wrQLenPdf::8                       1                       # What write queue length does an incoming req see
system.mem_ctrls.wrQLenPdf::9                       1                       # What write queue length does an incoming req see
system.mem_ctrls.wrQLenPdf::10                      1                       # What write queue length does an incoming req see
system.mem_ctrls.wrQLenPdf::11                      1                       # What write queue length does an incoming req see
system.mem_ctrls.wrQLenPdf::12                      1                       # What write queue length does an incoming req see
system.mem_ctrls.wrQLenPdf::13                      1                       # What write queue length does an incoming req see
system.mem_ctrls.wrQLenPdf::14                      1                       # What write queue length does an incoming req see
system.mem_ctrls.wrQLenPdf::15                   5604                       # What write queue length does an incoming req see
system.mem_ctrls.wrQLenPdf::16                   6078                       # What write queue length does an incoming req see
system.mem_ctrls.wrQLenPdf::17                  20942                       # What write queue length does an incoming req see
system.mem_ctrls.wrQLenPdf::18                  24520                       # What write queue length does an incoming req see
system.mem_ctrls.wrQLenPdf::19                  28759                       # What write queue length does an incoming req see
system.mem_ctrls.wrQLenPdf::20                  31193                       # What write queue length does an incoming req see
system.mem_ctrls.wrQLenPdf::21                  31547                       # What write queue length does an incoming req see
system.mem_ctrls.wrQLenPdf::22                  33105                       # What write queue length does an incoming req see
system.mem_ctrls.wrQLenPdf::23                  33673                       # What write queue length does an incoming req see
system.mem_ctrls.wrQLenPdf::24                  34849                       # What write queue length does an incoming req see
system.mem_ctrls.wrQLenPdf::25                  35158                       # What write queue length does an incoming req see
system.mem_ctrls.wrQLenPdf::26                  34567                       # What write queue length does an incoming req see
system.mem_ctrls.wrQLenPdf::27                  34223                       # What write queue length does an incoming req see
system.mem_ctrls.wrQLenPdf::28                  34899                       # What write queue length does an incoming req see
system.mem_ctrls.wrQLenPdf::29                  33790                       # What write queue length does an incoming req see
system.mem_ctrls.wrQLenPdf::30                  33379                       # What write queue length does an incoming req see
system.mem_ctrls.wrQLenPdf::31                  33607                       # What write queue length does an incoming req see
system.mem_ctrls.wrQLenPdf::32                  33093                       # What write queue length does an incoming req see
system.mem_ctrls.wrQLenPdf::33                   1489                       # What write queue length does an incoming req see
system.mem_ctrls.wrQLenPdf::34                   1080                       # What write queue length does an incoming req see
system.mem_ctrls.wrQLenPdf::35                    898                       # What write queue length does an incoming req see
system.mem_ctrls.wrQLenPdf::36                    688                       # What write queue length does an incoming req see
system.mem_ctrls.wrQLenPdf::37                    538                       # What write queue length does an incoming req see
system.mem_ctrls.wrQLenPdf::38                    452                       # What write queue length does an incoming req see
system.mem_ctrls.wrQLenPdf::39                    373                       # What write queue length does an incoming req see
system.mem_ctrls.wrQLenPdf::40                    337                       # What write queue length does an incoming req see
system.mem_ctrls.wrQLenPdf::41                    308                       # What write queue length does an incoming req see
system.mem_ctrls.wrQLenPdf::42                    297                       # What write queue length does an incoming req see
system.mem_ctrls.wrQLenPdf::43                    275                       # What write queue length does an incoming req see
system.mem_ctrls.wrQLenPdf::44                    276                       # What write queue length does an incoming req see
system.mem_ctrls.wrQLenPdf::45                    257                       # What write queue length does an incoming req see
system.mem_ctrls.wrQLenPdf::46                    235                       # What write queue length does an incoming req see
system.mem_ctrls.wrQLenPdf::47                    225                       # What write queue length does an incoming req see
system.mem_ctrls.wrQLenPdf::48                    242                       # What write queue length does an incoming req see
system.mem_ctrls.wrQLenPdf::49                    198                       # What write queue length does an incoming req see
system.mem_ctrls.wrQLenPdf::50                    179                       # What write queue length does an incoming req see
system.mem_ctrls.wrQLenPdf::51                    167                       # What write queue length does an incoming req see
system.mem_ctrls.wrQLenPdf::52                    160                       # What write queue length does an incoming req see
system.mem_ctrls.wrQLenPdf::53                    160                       # What write queue length does an incoming req see
system.mem_ctrls.wrQLenPdf::54                    147                       # What write queue length does an incoming req see
system.mem_ctrls.wrQLenPdf::55                    131                       # What write queue length does an incoming req see
system.mem_ctrls.wrQLenPdf::56                    131                       # What write queue length does an incoming req see
system.mem_ctrls.wrQLenPdf::57                    141                       # What write queue length does an incoming req see
system.mem_ctrls.wrQLenPdf::58                    148                       # What write queue length does an incoming req see
system.mem_ctrls.wrQLenPdf::59                    133                       # What write queue length does an incoming req see
system.mem_ctrls.wrQLenPdf::60                    123                       # What write queue length does an incoming req see
system.mem_ctrls.wrQLenPdf::61                    119                       # What write queue length does an incoming req see
system.mem_ctrls.wrQLenPdf::62                     84                       # What write queue length does an incoming req see
system.mem_ctrls.wrQLenPdf::63                     93                       # What write queue length does an incoming req see
system.mem_ctrls.bytesPerActivate::samples      1112575                       # Bytes accessed per row activation
system.mem_ctrls.bytesPerActivate::mean    277.266989                       # Bytes accessed per row activation
system.mem_ctrls.bytesPerActivate::gmean   161.382107                       # Bytes accessed per row activation
system.mem_ctrls.bytesPerActivate::stdev   316.689039                       # Bytes accessed per row activation
system.mem_ctrls.bytesPerActivate::0-127       465231     41.82%     41.82% # Bytes accessed per row activation
system.mem_ctrls.bytesPerActivate::128-255       288599     25.94%     67.76% # Bytes accessed per row activation
system.mem_ctrls.bytesPerActivate::256-383        87709      7.88%     75.64% # Bytes accessed per row activation
system.mem_ctrls.bytesPerActivate::384-511        53965      4.85%     80.49% # Bytes accessed per row activation
system.mem_ctrls.bytesPerActivate::512-639        40442      3.63%     84.12% # Bytes accessed per row activation
system.mem_ctrls.bytesPerActivate::640-767        23244      2.09%     86.21% # Bytes accessed per row activation
system.mem_ctrls.bytesPerActivate::768-895        18718      1.68%     87.90% # Bytes accessed per row activation
system.mem_ctrls.bytesPerActivate::896-1023        16273      1.46%     89.36% # Bytes accessed per row activation
system.mem_ctrls.bytesPerActivate::1024-1151       118394     10.64%    100.00% # Bytes accessed per row activation
system.mem_ctrls.bytesPerActivate::total      1112575                       # Bytes accessed per row activation
system.mem_ctrls.rdPerTurnAround::samples        32050                       # Reads before turning the bus around for writes
system.mem_ctrls.rdPerTurnAround::mean     133.757910                       # Reads before turning the bus around for writes
system.mem_ctrls.rdPerTurnAround::stdev   5765.900308                       # Reads before turning the bus around for writes
system.mem_ctrls.rdPerTurnAround::0-32767        32049    100.00%    100.00% # Reads before turning the bus around for writes
system.mem_ctrls.rdPerTurnAround::1.01581e+06-1.04858e+06            1      0.00%    100.00% # Reads before turning the bus around for writes
system.mem_ctrls.rdPerTurnAround::total         32050                       # Reads before turning the bus around for writes
system.mem_ctrls.wrPerTurnAround::samples        32050                       # Writes before turning the bus around for reads
system.mem_ctrls.wrPerTurnAround::mean      16.632231                       # Writes before turning the bus around for reads
system.mem_ctrls.wrPerTurnAround::gmean     16.487637                       # Writes before turning the bus around for reads
system.mem_ctrls.wrPerTurnAround::stdev      3.968510                       # Writes before turning the bus around for reads
system.mem_ctrls.wrPerTurnAround::16-19         31698     98.90%     98.90% # Writes before turning the bus around for reads
system.mem_ctrls.wrPerTurnAround::20-23           154      0.48%     99.38% # Writes before turning the bus around for reads
system.mem_ctrls.wrPerTurnAround::24-27            30      0.09%     99.48% # Writes before turning the bus around for reads
system.mem_ctrls.wrPerTurnAround::28-31            58      0.18%     99.66% # Writes before turning the bus around for reads
system.mem_ctrls.wrPerTurnAround::32-35            16      0.05%     99.71% # Writes before turning the bus around for reads
system.mem_ctrls.wrPerTurnAround::36-39            10      0.03%     99.74% # Writes before turning the bus around for reads
system.mem_ctrls.wrPerTurnAround::40-43             7      0.02%     99.76% # Writes before turning the bus around for reads
system.mem_ctrls.wrPerTurnAround::44-47             7      0.02%     99.78% # Writes before turning the bus around for reads
system.mem_ctrls.wrPerTurnAround::48-51             5      0.02%     99.80% # Writes before turning the bus around for reads
system.mem_ctrls.wrPerTurnAround::52-55             2      0.01%     99.80% # Writes before turning the bus around for reads
system.mem_ctrls.wrPerTurnAround::56-59             4      0.01%     99.82% # Writes before turning the bus around for reads
system.mem_ctrls.wrPerTurnAround::60-63             1      0.00%     99.82% # Writes before turning the bus around for reads
system.mem_ctrls.wrPerTurnAround::64-67             3      0.01%     99.83% # Writes before turning the bus around for reads
system.mem_ctrls.wrPerTurnAround::68-71             1      0.00%     99.83% # Writes before turning the bus around for reads
system.mem_ctrls.wrPerTurnAround::76-79             2      0.01%     99.84% # Writes before turning the bus around for reads
system.mem_ctrls.wrPerTurnAround::80-83             5      0.02%     99.85% # Writes before turning the bus around for reads
system.mem_ctrls.wrPerTurnAround::84-87             2      0.01%     99.86% # Writes before turning the bus around for reads
system.mem_ctrls.wrPerTurnAround::92-95             3      0.01%     99.87% # Writes before turning the bus around for reads
system.mem_ctrls.wrPerTurnAround::96-99            31      0.10%     99.97% # Writes before turning the bus around for reads
system.mem_ctrls.wrPerTurnAround::100-103            1      0.00%     99.97% # Writes before turning the bus around for reads
system.mem_ctrls.wrPerTurnAround::116-119            1      0.00%     99.97% # Writes before turning the bus around for reads
system.mem_ctrls.wrPerTurnAround::128-131            1      0.00%     99.98% # Writes before turning the bus around for reads
system.mem_ctrls.wrPerTurnAround::136-139            1      0.00%     99.98% # Writes before turning the bus around for reads
system.mem_ctrls.wrPerTurnAround::140-143            1      0.00%     99.98% # Writes before turning the bus around for reads
system.mem_ctrls.wrPerTurnAround::144-147            4      0.01%     99.99% # Writes before turning the bus around for reads
system.mem_ctrls.wrPerTurnAround::148-151            1      0.00%    100.00% # Writes before turning the bus around for reads
system.mem_ctrls.wrPerTurnAround::160-163            1      0.00%    100.00% # Writes before turning the bus around for reads
system.mem_ctrls.wrPerTurnAround::total         32050                       # Writes before turning the bus around for reads
system.mem_ctrls.totQLat                  41337052500                       # Total ticks spent queuing
system.mem_ctrls.totMemAccLat            121717965000                       # Total ticks spent from burst creation until serviced by the DRAM
system.mem_ctrls.totBusLat                21434910000                       # Total ticks spent in databus transfers
system.mem_ctrls.avgQLat                      9642.46                       # Average queueing delay per DRAM burst
system.mem_ctrls.avgBusLat                    5000.00                       # Average bus latency per DRAM burst
system.mem_ctrls.avgMemAccLat                28392.46                       # Average memory access latency per DRAM burst
system.mem_ctrls.avgRdBW                       106.45                       # Average DRAM read bandwidth in MiByte/s
system.mem_ctrls.avgWrBW                        13.24                       # Average achieved write bandwidth in MiByte/s
system.mem_ctrls.avgRdBWSys                    107.37                       # Average system read bandwidth in MiByte/s
system.mem_ctrls.avgWrBWSys                     13.40                       # Average system write bandwidth in MiByte/s
system.mem_ctrls.peakBW                      12800.00                       # Theoretical peak bandwidth in MiByte/s
system.mem_ctrls.busUtil                         0.94                       # Data bus utilization in percentage
system.mem_ctrls.busUtilRead                     0.83                       # Data bus utilization in percentage for reads
system.mem_ctrls.busUtilWrite                    0.10                       # Data bus utilization in percentage for writes
system.mem_ctrls.avgRdQLen                       1.03                       # Average read queue length when enqueuing
system.mem_ctrls.avgWrQLen                      25.72                       # Average write queue length when enqueuing
system.mem_ctrls.readRowHits                  3341983                       # Number of row buffer hits during reads
system.mem_ctrls.writeRowHits                  365474                       # Number of row buffer hits during writes
system.mem_ctrls.readRowHitRate                 77.96                       # Row buffer hit rate for reads
system.mem_ctrls.writeRowHitRate                68.56                       # Row buffer hit rate for writes
system.mem_ctrls.avgGap                     529948.79                       # Average gap between requests
system.mem_ctrls.pageHitRate                    76.92                       # Row buffer hit rate, read and write combined
system.mem_ctrls.memoryStateTime::IDLE   2164705471350                       # Time in different power states
system.mem_ctrls.memoryStateTime::REF     86064420000                       # Time in different power states
system.mem_ctrls.memoryStateTime::PRE_PDN            0                       # Time in different power states
system.mem_ctrls.memoryStateTime::ACT    326611988250                       # Time in different power states
system.mem_ctrls.memoryStateTime::ACT_PDN            0                       # Time in different power states
system.mem_ctrls.actEnergy::0              3105353160                       # Energy for activate commands per rank (pJ)
system.mem_ctrls.actEnergy::1              5305615560                       # Energy for activate commands per rank (pJ)
system.mem_ctrls.preEnergy::0              1694389125                       # Energy for precharge commands per rank (pJ)
system.mem_ctrls.preEnergy::1              2894929125                       # Energy for precharge commands per rank (pJ)
system.mem_ctrls.readEnergy::0            14845669800                       # Energy for read commands per rank (pJ)
system.mem_ctrls.readEnergy::1            18592282800                       # Energy for read commands per rank (pJ)
system.mem_ctrls.writeEnergy::0            1408570560                       # Energy for write commands per rank (pJ)
system.mem_ctrls.writeEnergy::1            2045561040                       # Energy for write commands per rank (pJ)
system.mem_ctrls.refreshEnergy::0        168342005520                       # Energy for refresh commands per rank (pJ)
system.mem_ctrls.refreshEnergy::1        168342005520                       # Energy for refresh commands per rank (pJ)
system.mem_ctrls.actBackEnergy::0        238755163275                       # Energy for active background per rank (pJ)
system.mem_ctrls.actBackEnergy::1        249174745605                       # Energy for active background per rank (pJ)
system.mem_ctrls.preBackEnergy::0        1336994472000                       # Energy for precharge background per rank (pJ)
system.mem_ctrls.preBackEnergy::1        1327854487500                       # Energy for precharge background per rank (pJ)
system.mem_ctrls.totalEnergy::0          1765145623440                       # Total energy per rank (pJ)
system.mem_ctrls.totalEnergy::1          1774209627150                       # Total energy per rank (pJ)
system.mem_ctrls.averagePower::0           684.860083                       # Core power per rank (mW)
system.mem_ctrls.averagePower::1           688.376832                       # Core power per rank (mW)
system.membus.trans_dist::ReadReq             4003406                       # Transaction distribution
system.membus.trans_dist::ReadResp            4003089                       # Transaction distribution
system.membus.trans_dist::WriteReq              10575                       # Transaction distribution
system.membus.trans_dist::WriteResp             10575                       # Transaction distribution
system.membus.trans_dist::Writeback            495296                       # Transaction distribution
system.membus.trans_dist::WriteInvalidateReq        44256                       # Transaction distribution
system.membus.trans_dist::WriteInvalidateResp        44256                       # Transaction distribution
system.membus.trans_dist::UpgradeReq              863                       # Transaction distribution
system.membus.trans_dist::SCUpgradeReq             18                       # Transaction distribution
system.membus.trans_dist::UpgradeResp             881                       # Transaction distribution
system.membus.trans_dist::ReadExReq            329440                       # Transaction distribution
system.membus.trans_dist::ReadExResp           329440                       # Transaction distribution
system.membus.trans_dist::BadAddressError          317                       # Transaction distribution
system.membus.pkt_count_system.iocache.mem_side::system.mem_ctrls.port        88795                       # Packet count per connected master and slave (bytes)
system.membus.pkt_count_system.iocache.mem_side::total        88795                       # Packet count per connected master and slave (bytes)
system.membus.pkt_count_system.cpu.icache.mem_side::system.mem_ctrls.port      2883584                       # Packet count per connected master and slave (bytes)
system.membus.pkt_count_system.cpu.icache.mem_side::total      2883584                       # Packet count per connected master and slave (bytes)
system.membus.pkt_count_system.cpu.dcache.mem_side::system.bridge.slave        36202                       # Packet count per connected master and slave (bytes)
system.membus.pkt_count_system.cpu.dcache.mem_side::system.mem_ctrls.port      6262108                       # Packet count per connected master and slave (bytes)
system.membus.pkt_count_system.cpu.dcache.mem_side::system.membus.badaddr_responder.pio          634                       # Packet count per connected master and slave (bytes)
system.membus.pkt_count_system.cpu.dcache.mem_side::total      6298944                       # Packet count per connected master and slave (bytes)
system.membus.pkt_count::total                9271323                       # Packet count per connected master and slave (bytes)
system.membus.pkt_size_system.iocache.mem_side::system.mem_ctrls.port      2837120                       # Cumulative packet size per connected master and slave (bytes)
system.membus.pkt_size_system.iocache.mem_side::total      2837120                       # Cumulative packet size per connected master and slave (bytes)
system.membus.pkt_size_system.cpu.icache.mem_side::system.mem_ctrls.port     92244160                       # Cumulative packet size per connected master and slave (bytes)
system.membus.pkt_size_system.cpu.icache.mem_side::total     92244160                       # Cumulative packet size per connected master and slave (bytes)
system.membus.pkt_size_system.cpu.dcache.mem_side::system.bridge.slave        47565                       # Cumulative packet size per connected master and slave (bytes)
system.membus.pkt_size_system.cpu.dcache.mem_side::system.mem_ctrls.port    216180544                       # Cumulative packet size per connected master and slave (bytes)
system.membus.pkt_size_system.cpu.dcache.mem_side::total    216228109                       # Cumulative packet size per connected master and slave (bytes)
system.membus.pkt_size::total               311309389                       # Cumulative packet size per connected master and slave (bytes)
system.membus.snoops                             1089                       # Total snoops (count)
system.membus.snoop_fanout::samples           4865783                       # Request fanout histogram
system.membus.snoop_fanout::mean                    2                       # Request fanout histogram
system.membus.snoop_fanout::stdev                   0                       # Request fanout histogram
system.membus.snoop_fanout::underflows              0      0.00%      0.00% # Request fanout histogram
system.membus.snoop_fanout::0                       0      0.00%      0.00% # Request fanout histogram
system.membus.snoop_fanout::1                       0      0.00%      0.00% # Request fanout histogram
system.membus.snoop_fanout::2                 4865783    100.00%    100.00% # Request fanout histogram
system.membus.snoop_fanout::3                       0      0.00%    100.00% # Request fanout histogram
system.membus.snoop_fanout::overflows               0      0.00%    100.00% # Request fanout histogram
system.membus.snoop_fanout::min_value               2                       # Request fanout histogram
system.membus.snoop_fanout::max_value               2                       # Request fanout histogram
system.membus.snoop_fanout::total             4865783                       # Request fanout histogram
system.membus.reqLayer0.occupancy            37116825                       # Layer occupancy (ticks)
system.membus.reqLayer0.utilization               0.0                       # Layer utilization (%)
system.membus.reqLayer1.occupancy         11355886169                       # Layer occupancy (ticks)
system.membus.reqLayer1.utilization               0.4                       # Layer utilization (%)
system.membus.reqLayer2.occupancy              482875                       # Layer occupancy (ticks)
system.membus.reqLayer2.utilization               0.0                       # Layer utilization (%)
system.membus.respLayer1.occupancy           46369701                       # Layer occupancy (ticks)
system.membus.respLayer1.utilization              0.0                       # Layer utilization (%)
system.membus.respLayer2.occupancy        13677079854                       # Layer occupancy (ticks)
system.membus.respLayer2.utilization              0.5                       # Layer utilization (%)
system.membus.respLayer3.occupancy        27094585716                       # Layer occupancy (ticks)
system.membus.respLayer3.utilization              1.1                       # Layer utilization (%)
system.iocache.tags.replacements                44449                       # number of replacements
system.iocache.tags.tagsinuse                0.381927                       # Cycle average of tags in use
system.iocache.tags.total_refs                      0                       # Total number of references to valid blocks.
system.iocache.tags.sampled_refs                44449                       # Sample count of references to valid blocks.
system.iocache.tags.avg_refs                        0                       # Average number of references to valid blocks.
system.iocache.tags.warmup_cycle         2515864696000                       # Cycle when the warmup percentage was hit.
system.iocache.tags.occ_blocks::tsunami.ide     0.381927                       # Average occupied blocks per requestor
system.iocache.tags.occ_percent::tsunami.ide     0.023870                       # Average percentage of cache occupancy
system.iocache.tags.occ_percent::total       0.023870                       # Average percentage of cache occupancy
system.iocache.tags.occ_task_id_blocks::1023           16                       # Occupied blocks per task id
system.iocache.tags.age_task_id_blocks_1023::4           16                       # Occupied blocks per task id
system.iocache.tags.occ_task_id_percent::1023            1                       # Percentage of cache occupancy per task id
system.iocache.tags.tag_accesses               400265                       # Number of tag accesses
system.iocache.tags.data_accesses              400265                       # Number of data accesses
system.iocache.WriteInvalidateReq_hits::tsunami.ide        44256                       # number of WriteInvalidateReq hits
system.iocache.WriteInvalidateReq_hits::total        44256                       # number of WriteInvalidateReq hits
system.iocache.ReadReq_misses::tsunami.ide          209                       # number of ReadReq misses
system.iocache.ReadReq_misses::total              209                       # number of ReadReq misses
system.iocache.WriteInvalidateReq_misses::tsunami.ide           10                       # number of WriteInvalidateReq misses
system.iocache.WriteInvalidateReq_misses::total           10                       # number of WriteInvalidateReq misses
system.iocache.demand_misses::tsunami.ide          209                       # number of demand (read+write) misses
system.iocache.demand_misses::total               209                       # number of demand (read+write) misses
system.iocache.overall_misses::tsunami.ide          209                       # number of overall misses
system.iocache.overall_misses::total              209                       # number of overall misses
system.iocache.ReadReq_miss_latency::tsunami.ide     31647029                       # number of ReadReq miss cycles
system.iocache.ReadReq_miss_latency::total     31647029                       # number of ReadReq miss cycles
system.iocache.demand_miss_latency::tsunami.ide     31647029                       # number of demand (read+write) miss cycles
system.iocache.demand_miss_latency::total     31647029                       # number of demand (read+write) miss cycles
system.iocache.overall_miss_latency::tsunami.ide     31647029                       # number of overall miss cycles
system.iocache.overall_miss_latency::total     31647029                       # number of overall miss cycles
system.iocache.ReadReq_accesses::tsunami.ide          209                       # number of ReadReq accesses(hits+misses)
system.iocache.ReadReq_accesses::total            209                       # number of ReadReq accesses(hits+misses)
system.iocache.WriteInvalidateReq_accesses::tsunami.ide        44266                       # number of WriteInvalidateReq accesses(hits+misses)
system.iocache.WriteInvalidateReq_accesses::total        44266                       # number of WriteInvalidateReq accesses(hits+misses)
system.iocache.demand_accesses::tsunami.ide          209                       # number of demand (read+write) accesses
system.iocache.demand_accesses::total             209                       # number of demand (read+write) accesses
system.iocache.overall_accesses::tsunami.ide          209                       # number of overall (read+write) accesses
system.iocache.overall_accesses::total            209                       # number of overall (read+write) accesses
system.iocache.ReadReq_miss_rate::tsunami.ide            1                       # miss rate for ReadReq accesses
system.iocache.ReadReq_miss_rate::total             1                       # miss rate for ReadReq accesses
system.iocache.WriteInvalidateReq_miss_rate::tsunami.ide     0.000226                       # miss rate for WriteInvalidateReq accesses
system.iocache.WriteInvalidateReq_miss_rate::total     0.000226                       # miss rate for WriteInvalidateReq accesses
system.iocache.demand_miss_rate::tsunami.ide            1                       # miss rate for demand accesses
system.iocache.demand_miss_rate::total              1                       # miss rate for demand accesses
system.iocache.overall_miss_rate::tsunami.ide            1                       # miss rate for overall accesses
system.iocache.overall_miss_rate::total             1                       # miss rate for overall accesses
system.iocache.ReadReq_avg_miss_latency::tsunami.ide 151421.191388                       # average ReadReq miss latency
system.iocache.ReadReq_avg_miss_latency::total 151421.191388                       # average ReadReq miss latency
system.iocache.demand_avg_miss_latency::tsunami.ide 151421.191388                       # average overall miss latency
system.iocache.demand_avg_miss_latency::total 151421.191388                       # average overall miss latency
system.iocache.overall_avg_miss_latency::tsunami.ide 151421.191388                       # average overall miss latency
system.iocache.overall_avg_miss_latency::total 151421.191388                       # average overall miss latency
system.iocache.blocked_cycles::no_mshrs           429                       # number of cycles access was blocked
system.iocache.blocked_cycles::no_targets            0                       # number of cycles access was blocked
system.iocache.blocked::no_mshrs                   45                       # number of cycles access was blocked
system.iocache.blocked::no_targets                  0                       # number of cycles access was blocked
system.iocache.avg_blocked_cycles::no_mshrs     9.533333                       # average number of cycles each access was blocked
system.iocache.avg_blocked_cycles::no_targets          nan                       # average number of cycles each access was blocked
system.iocache.fast_writes                      44256                       # number of fast writes performed
system.iocache.cache_copies                         0                       # number of cache copies performed
system.iocache.ReadReq_mshr_misses::tsunami.ide          209                       # number of ReadReq MSHR misses
system.iocache.ReadReq_mshr_misses::total          209                       # number of ReadReq MSHR misses
system.iocache.WriteInvalidateReq_mshr_misses::tsunami.ide        44256                       # number of WriteInvalidateReq MSHR misses
system.iocache.WriteInvalidateReq_mshr_misses::total        44256                       # number of WriteInvalidateReq MSHR misses
system.iocache.demand_mshr_misses::tsunami.ide          209                       # number of demand (read+write) MSHR misses
system.iocache.demand_mshr_misses::total          209                       # number of demand (read+write) MSHR misses
system.iocache.overall_mshr_misses::tsunami.ide          209                       # number of overall MSHR misses
system.iocache.overall_mshr_misses::total          209                       # number of overall MSHR misses
system.iocache.ReadReq_mshr_miss_latency::tsunami.ide     20629329                       # number of ReadReq MSHR miss cycles
system.iocache.ReadReq_mshr_miss_latency::total     20629329                       # number of ReadReq MSHR miss cycles
system.iocache.WriteInvalidateReq_mshr_miss_latency::tsunami.ide   2975616989                       # number of WriteInvalidateReq MSHR miss cycles
system.iocache.WriteInvalidateReq_mshr_miss_latency::total   2975616989                       # number of WriteInvalidateReq MSHR miss cycles
system.iocache.demand_mshr_miss_latency::tsunami.ide     20629329                       # number of demand (read+write) MSHR miss cycles
system.iocache.demand_mshr_miss_latency::total     20629329                       # number of demand (read+write) MSHR miss cycles
system.iocache.overall_mshr_miss_latency::tsunami.ide     20629329                       # number of overall MSHR miss cycles
system.iocache.overall_mshr_miss_latency::total     20629329                       # number of overall MSHR miss cycles
system.iocache.ReadReq_mshr_miss_rate::tsunami.ide            1                       # mshr miss rate for ReadReq accesses
system.iocache.ReadReq_mshr_miss_rate::total            1                       # mshr miss rate for ReadReq accesses
system.iocache.WriteInvalidateReq_mshr_miss_rate::tsunami.ide     0.999774                       # mshr miss rate for WriteInvalidateReq accesses
system.iocache.WriteInvalidateReq_mshr_miss_rate::total     0.999774                       # mshr miss rate for WriteInvalidateReq accesses
system.iocache.demand_mshr_miss_rate::tsunami.ide            1                       # mshr miss rate for demand accesses
system.iocache.demand_mshr_miss_rate::total            1                       # mshr miss rate for demand accesses
system.iocache.overall_mshr_miss_rate::tsunami.ide            1                       # mshr miss rate for overall accesses
system.iocache.overall_mshr_miss_rate::total            1                       # mshr miss rate for overall accesses
system.iocache.ReadReq_avg_mshr_miss_latency::tsunami.ide 98704.923445                       # average ReadReq mshr miss latency
system.iocache.ReadReq_avg_mshr_miss_latency::total 98704.923445                       # average ReadReq mshr miss latency
system.iocache.WriteInvalidateReq_avg_mshr_miss_latency::tsunami.ide 67236.464864                       # average WriteInvalidateReq mshr miss latency
system.iocache.WriteInvalidateReq_avg_mshr_miss_latency::total 67236.464864                       # average WriteInvalidateReq mshr miss latency
system.iocache.demand_avg_mshr_miss_latency::tsunami.ide 98704.923445                       # average overall mshr miss latency
system.iocache.demand_avg_mshr_miss_latency::total 98704.923445                       # average overall mshr miss latency
system.iocache.overall_avg_mshr_miss_latency::tsunami.ide 98704.923445                       # average overall mshr miss latency
system.iocache.overall_avg_mshr_miss_latency::total 98704.923445                       # average overall mshr miss latency
system.iocache.no_allocate_misses                   0                       # Number of misses that were no-allocate
system.disk0.dma_read_full_pages                    0                       # Number of full page size DMA reads (not PRD).
system.disk0.dma_read_bytes                      4096                       # Number of bytes transfered via DMA reads (not PRD).
system.disk0.dma_read_txs                           1                       # Number of DMA read transactions (not PRD).
system.disk0.dma_write_full_pages                 326                       # Number of full page size DMA writes.
system.disk0.dma_write_bytes                  2824192                       # Number of bytes transfered via DMA writes.
system.disk0.dma_write_txs                        365                       # Number of DMA write transactions.
system.disk2.dma_read_full_pages                    0                       # Number of full page size DMA reads (not PRD).
system.disk2.dma_read_bytes                         0                       # Number of bytes transfered via DMA reads (not PRD).
system.disk2.dma_read_txs                           0                       # Number of DMA read transactions (not PRD).
system.disk2.dma_write_full_pages                   1                       # Number of full page size DMA writes.
system.disk2.dma_write_bytes                     8192                       # Number of bytes transfered via DMA writes.
system.disk2.dma_write_txs                          1                       # Number of DMA write transactions.
system.cpu.branchPred.lookups                27361737                       # Number of BP lookups
system.cpu.branchPred.condPredicted          23200781                       # Number of conditional branches predicted
system.cpu.branchPred.condIncorrect            609334                       # Number of conditional branches incorrect
system.cpu.branchPred.BTBLookups             18149972                       # Number of BTB lookups
system.cpu.branchPred.BTBHits                10451789                       # Number of BTB hits
system.cpu.branchPred.BTBCorrect                    0                       # Number of correct BTB predictions (this stat may not work properly.
system.cpu.branchPred.BTBHitPct             57.585703                       # BTB Hit Percentage
system.cpu.branchPred.usedRAS                 1701154                       # Number of times the RAS was used to get a target.
system.cpu.branchPred.RASInCorrect              37958                       # Number of incorrect RAS predictions.
system.cpu_voltage_domain.voltage                   1                       # Voltage in Volts
system.cpu_clk_domain.clock                      2825                       # Clock period in ticks
system.cpu.dtb.fetch_hits                           0                       # ITB hits
system.cpu.dtb.fetch_misses                         0                       # ITB misses
system.cpu.dtb.fetch_acv                            0                       # ITB acv
system.cpu.dtb.fetch_accesses                       0                       # ITB accesses
system.cpu.dtb.read_hits                     17384619                       # DTB read hits
system.cpu.dtb.read_misses                      81080                       # DTB read misses
system.cpu.dtb.read_acv                           238                       # DTB read access violations
system.cpu.dtb.read_accesses                  1172822                       # DTB read accesses
system.cpu.dtb.write_hits                     8697623                       # DTB write hits
system.cpu.dtb.write_misses                     13317                       # DTB write misses
system.cpu.dtb.write_acv                          536                       # DTB write access violations
system.cpu.dtb.write_accesses                  414726                       # DTB write accesses
system.cpu.dtb.data_hits                     26082242                       # DTB hits
system.cpu.dtb.data_misses                      94397                       # DTB misses
system.cpu.dtb.data_acv                           774                       # DTB access violations
system.cpu.dtb.data_accesses                  1587548                       # DTB accesses
system.cpu.itb.fetch_hits                     2143499                       # ITB hits
system.cpu.itb.fetch_misses                     28443                       # ITB misses
system.cpu.itb.fetch_acv                          732                       # ITB acv
system.cpu.itb.fetch_accesses                 2171942                       # ITB accesses
system.cpu.itb.read_hits                            0                       # DTB read hits
system.cpu.itb.read_misses                          0                       # DTB read misses
system.cpu.itb.read_acv                             0                       # DTB read access violations
system.cpu.itb.read_accesses                        0                       # DTB read accesses
system.cpu.itb.write_hits                           0                       # DTB write hits
system.cpu.itb.write_misses                         0                       # DTB write misses
system.cpu.itb.write_acv                            0                       # DTB write access violations
system.cpu.itb.write_accesses                       0                       # DTB write accesses
system.cpu.itb.data_hits                            0                       # DTB hits
system.cpu.itb.data_misses                          0                       # DTB misses
system.cpu.itb.data_acv                             0                       # DTB access violations
system.cpu.itb.data_accesses                        0                       # DTB accesses
system.cpu.numCycles                        118682136                       # number of cpu cycles simulated
system.cpu.numWorkItemsStarted                      0                       # number of work items this cpu started
system.cpu.numWorkItemsCompleted                    0                       # number of work items this cpu completed
system.cpu.fetch.icacheStallCycles           39689775                       # Number of cycles fetch is stalled on an Icache miss
system.cpu.fetch.Insts                      121107419                       # Number of instructions fetch has processed
system.cpu.fetch.Branches                    27361737                       # Number of branches that fetch encountered
system.cpu.fetch.predictedBranches           12152943                       # Number of branches that fetch has predicted taken
system.cpu.fetch.Cycles                      73437660                       # Number of cycles fetch has run and was not squashing or blocked
system.cpu.fetch.SquashCycles                 1799704                       # Number of cycles fetch has spent squashing
system.cpu.fetch.TlbCycles                       2027                       # Number of cycles fetch has spent waiting for tlb
system.cpu.fetch.MiscStallCycles                46285                       # Number of cycles fetch has spent waiting on interrupts, or bad addresses, or out of MSHRs
system.cpu.fetch.PendingTrapStallCycles        884060                       # Number of stall cycles due to pending traps
system.cpu.fetch.PendingQuiesceStallCycles       379190                       # Number of stall cycles due to pending quiesce instructions
system.cpu.fetch.IcacheWaitRetryStallCycles           38                       # Number of stall cycles due to full MSHR
system.cpu.fetch.CacheLines                  15668461                       # Number of cache lines fetched
system.cpu.fetch.IcacheSquashes                423963                       # Number of outstanding Icache misses that were squashed
system.cpu.fetch.ItlbSquashes                      16                       # Number of outstanding ITLB misses that were squashed
system.cpu.fetch.rateDist::samples          115338893                       # Number of instructions fetched each cycle (Total)
system.cpu.fetch.rateDist::mean              1.050014                       # Number of instructions fetched each cycle (Total)
system.cpu.fetch.rateDist::stdev             2.320915                       # Number of instructions fetched each cycle (Total)
system.cpu.fetch.rateDist::underflows               0      0.00%      0.00% # Number of instructions fetched each cycle (Total)
system.cpu.fetch.rateDist::0                 90282469     78.28%     78.28% # Number of instructions fetched each cycle (Total)
system.cpu.fetch.rateDist::1                  2723936      2.36%     80.64% # Number of instructions fetched each cycle (Total)
system.cpu.fetch.rateDist::2                  3484104      3.02%     83.66% # Number of instructions fetched each cycle (Total)
system.cpu.fetch.rateDist::3                  2301820      2.00%     85.65% # Number of instructions fetched each cycle (Total)
system.cpu.fetch.rateDist::4                  4941549      4.28%     89.94% # Number of instructions fetched each cycle (Total)
system.cpu.fetch.rateDist::5                  1154639      1.00%     90.94% # Number of instructions fetched each cycle (Total)
system.cpu.fetch.rateDist::6                  1905771      1.65%     92.59% # Number of instructions fetched each cycle (Total)
system.cpu.fetch.rateDist::7                   821042      0.71%     93.30% # Number of instructions fetched each cycle (Total)
system.cpu.fetch.rateDist::8                  7723563      6.70%    100.00% # Number of instructions fetched each cycle (Total)
system.cpu.fetch.rateDist::overflows                0      0.00%    100.00% # Number of instructions fetched each cycle (Total)
system.cpu.fetch.rateDist::min_value                0                       # Number of instructions fetched each cycle (Total)
system.cpu.fetch.rateDist::max_value                8                       # Number of instructions fetched each cycle (Total)
system.cpu.fetch.rateDist::total            115338893                       # Number of instructions fetched each cycle (Total)
system.cpu.fetch.branchRate                  0.230546                       # Number of branch fetches per cycle
system.cpu.fetch.rate                        1.020435                       # Number of inst fetches per cycle
system.cpu.decode.IdleCycles                 31923906                       # Number of cycles decode is idle
system.cpu.decode.BlockedCycles              63462130                       # Number of cycles decode is blocked
system.cpu.decode.RunCycles                  15489449                       # Number of cycles decode is running
system.cpu.decode.UnblockCycles               3640846                       # Number of cycles decode is unblocking
system.cpu.decode.SquashCycles                 822561                       # Number of cycles decode is squashing
system.cpu.decode.BranchResolved               924680                       # Number of times decode resolved a branch
system.cpu.decode.BranchMispred                 78183                       # Number of times decode detected a branch misprediction
system.cpu.decode.DecodedInsts              108475282                       # Number of instructions handled by decode
system.cpu.decode.SquashedInsts                224361                       # Number of squashed instructions handled by decode
system.cpu.rename.SquashCycles                 822561                       # Number of cycles rename is squashing
system.cpu.rename.IdleCycles                 33561432                       # Number of cycles rename is idle
system.cpu.rename.BlockCycles                28850828                       # Number of cycles rename is blocking
system.cpu.rename.serializeStallCycles       23577209                       # count of cycles rename stalled for serializing inst
system.cpu.rename.RunCycles                  17362650                       # Number of cycles rename is running
system.cpu.rename.UnblockCycles              11164211                       # Number of cycles rename is unblocking
system.cpu.rename.RenamedInsts              105225300                       # Number of instructions processed by rename
system.cpu.rename.ROBFullEvents                178621                       # Number of times rename has blocked due to ROB full
system.cpu.rename.IQFullEvents                7571444                       # Number of times rename has blocked due to IQ full
system.cpu.rename.LQFullEvents                 574181                       # Number of times rename has blocked due to LQ full
system.cpu.rename.SQFullEvents                 727658                       # Number of times rename has blocked due to SQ full
system.cpu.rename.RenamedOperands            75776411                       # Number of destination operands rename has renamed
system.cpu.rename.RenameLookups             135171746                       # Number of register rename lookups that rename has made
system.cpu.rename.int_rename_lookups        134973402                       # Number of integer rename lookups
system.cpu.rename.fp_rename_lookups            184076                       # Number of floating rename lookups
system.cpu.rename.CommittedMaps              66686937                       # Number of HB maps that are committed
system.cpu.rename.UndoneMaps                  9089466                       # Number of HB maps that are undone due to squashing
system.cpu.rename.serializingInsts            1981077                       # count of serializing insts renamed
system.cpu.rename.tempSerializingInsts         322029                       # count of temporary serializing insts renamed
system.cpu.rename.skidInsts                  23503196                       # count of insts added to the skid buffer
system.cpu.memDep0.insertedLoads             18105357                       # Number of loads inserted to the mem dependence unit.
system.cpu.memDep0.insertedStores             9141868                       # Number of stores inserted to the mem dependence unit.
system.cpu.memDep0.conflictingLoads           2579418                       # Number of conflicting loads.
system.cpu.memDep0.conflictingStores          1690462                       # Number of conflicting stores.
system.cpu.iq.iqInstsAdded                   98613200                       # Number of instructions added to the IQ (excludes non-spec)
system.cpu.iq.iqNonSpecInstsAdded             2696574                       # Number of non-speculative instructions added to the IQ
system.cpu.iq.iqInstsIssued                  96227278                       # Number of instructions issued
system.cpu.iq.iqSquashedInstsIssued             87729                       # Number of squashed instructions issued
system.cpu.iq.iqSquashedInstsExamined        11309449                       # Number of squashed instructions iterated over during squash; mainly for profiling
system.cpu.iq.iqSquashedOperandsExamined      5702406                       # Number of squashed operands that are examined and possibly removed from graph
system.cpu.iq.iqSquashedNonSpecRemoved        1712360                       # Number of squashed non-spec instructions that were removed
system.cpu.iq.issued_per_cycle::samples     115338893                       # Number of insts issued each cycle
system.cpu.iq.issued_per_cycle::mean         0.834300                       # Number of insts issued each cycle
system.cpu.iq.issued_per_cycle::stdev        1.488598                       # Number of insts issued each cycle
system.cpu.iq.issued_per_cycle::underflows            0      0.00%      0.00% # Number of insts issued each cycle
system.cpu.iq.issued_per_cycle::0            74093265     64.24%     64.24% # Number of insts issued each cycle
system.cpu.iq.issued_per_cycle::1            18862055     16.35%     80.59% # Number of insts issued each cycle
system.cpu.iq.issued_per_cycle::2             7794356      6.76%     87.35% # Number of insts issued each cycle
system.cpu.iq.issued_per_cycle::3             5130250      4.45%     91.80% # Number of insts issued each cycle
system.cpu.iq.issued_per_cycle::4             4775985      4.14%     95.94% # Number of insts issued each cycle
system.cpu.iq.issued_per_cycle::5             2257011      1.96%     97.90% # Number of insts issued each cycle
system.cpu.iq.issued_per_cycle::6             1357419      1.18%     99.07% # Number of insts issued each cycle
system.cpu.iq.issued_per_cycle::7              696164      0.60%     99.68% # Number of insts issued each cycle
system.cpu.iq.issued_per_cycle::8              372388      0.32%    100.00% # Number of insts issued each cycle
system.cpu.iq.issued_per_cycle::overflows            0      0.00%    100.00% # Number of insts issued each cycle
system.cpu.iq.issued_per_cycle::min_value            0                       # Number of insts issued each cycle
system.cpu.iq.issued_per_cycle::max_value            8                       # Number of insts issued each cycle
system.cpu.iq.issued_per_cycle::total       115338893                       # Number of insts issued each cycle
system.cpu.iq.fu_full::No_OpClass                   0      0.00%      0.00% # attempts to use FU when none available
system.cpu.iq.fu_full::IntAlu                  443881     25.83%     25.83% # attempts to use FU when none available
system.cpu.iq.fu_full::IntMult                      2      0.00%     25.83% # attempts to use FU when none available
system.cpu.iq.fu_full::IntDiv                       0      0.00%     25.83% # attempts to use FU when none available
system.cpu.iq.fu_full::FloatAdd                     0      0.00%     25.83% # attempts to use FU when none available
system.cpu.iq.fu_full::FloatCmp                     0      0.00%     25.83% # attempts to use FU when none available
system.cpu.iq.fu_full::FloatCvt                     0      0.00%     25.83% # attempts to use FU when none available
system.cpu.iq.fu_full::FloatMult                    0      0.00%     25.83% # attempts to use FU when none available
system.cpu.iq.fu_full::FloatDiv                     0      0.00%     25.83% # attempts to use FU when none available
system.cpu.iq.fu_full::FloatSqrt                    0      0.00%     25.83% # attempts to use FU when none available
system.cpu.iq.fu_full::SimdAdd                      0      0.00%     25.83% # attempts to use FU when none available
system.cpu.iq.fu_full::SimdAddAcc                   0      0.00%     25.83% # attempts to use FU when none available
system.cpu.iq.fu_full::SimdAlu                      0      0.00%     25.83% # attempts to use FU when none available
system.cpu.iq.fu_full::SimdCmp                      0      0.00%     25.83% # attempts to use FU when none available
system.cpu.iq.fu_full::SimdCvt                      0      0.00%     25.83% # attempts to use FU when none available
system.cpu.iq.fu_full::SimdMisc                     0      0.00%     25.83% # attempts to use FU when none available
system.cpu.iq.fu_full::SimdMult                     0      0.00%     25.83% # attempts to use FU when none available
system.cpu.iq.fu_full::SimdMultAcc                  0      0.00%     25.83% # attempts to use FU when none available
system.cpu.iq.fu_full::SimdShift                    0      0.00%     25.83% # attempts to use FU when none available
system.cpu.iq.fu_full::SimdShiftAcc                 0      0.00%     25.83% # attempts to use FU when none available
system.cpu.iq.fu_full::SimdSqrt                     0      0.00%     25.83% # attempts to use FU when none available
system.cpu.iq.fu_full::SimdFloatAdd                 0      0.00%     25.83% # attempts to use FU when none available
system.cpu.iq.fu_full::SimdFloatAlu                 0      0.00%     25.83% # attempts to use FU when none available
system.cpu.iq.fu_full::SimdFloatCmp                 0      0.00%     25.83% # attempts to use FU when none available
system.cpu.iq.fu_full::SimdFloatCvt                 0      0.00%     25.83% # attempts to use FU when none available
system.cpu.iq.fu_full::SimdFloatDiv                 0      0.00%     25.83% # attempts to use FU when none available
system.cpu.iq.fu_full::SimdFloatMisc                0      0.00%     25.83% # attempts to use FU when none available
system.cpu.iq.fu_full::SimdFloatMult                0      0.00%     25.83% # attempts to use FU when none available
system.cpu.iq.fu_full::SimdFloatMultAcc             0      0.00%     25.83% # attempts to use FU when none available
system.cpu.iq.fu_full::SimdFloatSqrt                0      0.00%     25.83% # attempts to use FU when none available
system.cpu.iq.fu_full::MemRead                 764948     44.52%     70.35% # attempts to use FU when none available
system.cpu.iq.fu_full::MemWrite                509459     29.65%    100.00% # attempts to use FU when none available
system.cpu.iq.fu_full::IprAccess                    0      0.00%    100.00% # attempts to use FU when none available
system.cpu.iq.fu_full::InstPrefetch                 0      0.00%    100.00% # attempts to use FU when none available
system.cpu.iq.FU_type_0::No_OpClass              8369      0.01%      0.01% # Type of FU issued
system.cpu.iq.FU_type_0::IntAlu              67931858     70.60%     70.60% # Type of FU issued
system.cpu.iq.FU_type_0::IntMult               159776      0.17%     70.77% # Type of FU issued
system.cpu.iq.FU_type_0::IntDiv                     0      0.00%     70.77% # Type of FU issued
system.cpu.iq.FU_type_0::FloatAdd               85857      0.09%     70.86% # Type of FU issued
system.cpu.iq.FU_type_0::FloatCmp                   0      0.00%     70.86% # Type of FU issued
system.cpu.iq.FU_type_0::FloatCvt                   0      0.00%     70.86% # Type of FU issued
system.cpu.iq.FU_type_0::FloatMult                  0      0.00%     70.86% # Type of FU issued
system.cpu.iq.FU_type_0::FloatDiv                4183      0.00%     70.86% # Type of FU issued
system.cpu.iq.FU_type_0::FloatSqrt                  0      0.00%     70.86% # Type of FU issued
system.cpu.iq.FU_type_0::SimdAdd                    0      0.00%     70.86% # Type of FU issued
system.cpu.iq.FU_type_0::SimdAddAcc                 0      0.00%     70.86% # Type of FU issued
system.cpu.iq.FU_type_0::SimdAlu                    0      0.00%     70.86% # Type of FU issued
system.cpu.iq.FU_type_0::SimdCmp                    0      0.00%     70.86% # Type of FU issued
system.cpu.iq.FU_type_0::SimdCvt                    0      0.00%     70.86% # Type of FU issued
system.cpu.iq.FU_type_0::SimdMisc                   0      0.00%     70.86% # Type of FU issued
system.cpu.iq.FU_type_0::SimdMult                   0      0.00%     70.86% # Type of FU issued
system.cpu.iq.FU_type_0::SimdMultAcc                0      0.00%     70.86% # Type of FU issued
system.cpu.iq.FU_type_0::SimdShift                  0      0.00%     70.86% # Type of FU issued
system.cpu.iq.FU_type_0::SimdShiftAcc               0      0.00%     70.86% # Type of FU issued
system.cpu.iq.FU_type_0::SimdSqrt                   0      0.00%     70.86% # Type of FU issued
system.cpu.iq.FU_type_0::SimdFloatAdd               0      0.00%     70.86% # Type of FU issued
system.cpu.iq.FU_type_0::SimdFloatAlu               0      0.00%     70.86% # Type of FU issued
system.cpu.iq.FU_type_0::SimdFloatCmp               0      0.00%     70.86% # Type of FU issued
system.cpu.iq.FU_type_0::SimdFloatCvt               0      0.00%     70.86% # Type of FU issued
system.cpu.iq.FU_type_0::SimdFloatDiv               0      0.00%     70.86% # Type of FU issued
system.cpu.iq.FU_type_0::SimdFloatMisc              0      0.00%     70.86% # Type of FU issued
system.cpu.iq.FU_type_0::SimdFloatMult              0      0.00%     70.86% # Type of FU issued
system.cpu.iq.FU_type_0::SimdFloatMultAcc            0      0.00%     70.86% # Type of FU issued
system.cpu.iq.FU_type_0::SimdFloatSqrt              0      0.00%     70.86% # Type of FU issued
system.cpu.iq.FU_type_0::MemRead             18073358     18.78%     89.65% # Type of FU issued
system.cpu.iq.FU_type_0::MemWrite             8880194      9.23%     98.87% # Type of FU issued
system.cpu.iq.FU_type_0::IprAccess            1083683      1.13%    100.00% # Type of FU issued
system.cpu.iq.FU_type_0::InstPrefetch               0      0.00%    100.00% # Type of FU issued
system.cpu.iq.FU_type_0::total               96227278                       # Type of FU issued
system.cpu.iq.rate                           0.810798                       # Inst issue rate
system.cpu.iq.fu_busy_cnt                     1718290                       # FU busy when requested
system.cpu.iq.fu_busy_rate                   0.017857                       # FU busy rate (busy events/executed inst)
system.cpu.iq.int_inst_queue_reads          308731591                       # Number of integer instruction queue reads
system.cpu.iq.int_inst_queue_writes         112238492                       # Number of integer instruction queue writes
system.cpu.iq.int_inst_queue_wakeup_accesses     94291139                       # Number of integer instruction queue wakeup accesses
system.cpu.iq.fp_inst_queue_reads              867876                       # Number of floating instruction queue reads
system.cpu.iq.fp_inst_queue_writes             416936                       # Number of floating instruction queue writes
system.cpu.iq.fp_inst_queue_wakeup_accesses       400646                       # Number of floating instruction queue wakeup accesses
system.cpu.iq.int_alu_accesses               97475341                       # Number of integer alu accesses
system.cpu.iq.fp_alu_accesses                  461858                       # Number of floating point alu accesses
system.cpu.iew.lsq.thread0.forwLoads           838332                       # Number of loads that had data forwarded from stores
system.cpu.iew.lsq.thread0.invAddrLoads             0                       # Number of loads ignored due to an invalid address
system.cpu.iew.lsq.thread0.squashedLoads      2178442                       # Number of loads squashed
system.cpu.iew.lsq.thread0.ignoredResponses         3176                       # Number of memory responses ignored because the instruction is squashed
system.cpu.iew.lsq.thread0.memOrderViolation        36761                       # Number of memory ordering violations
system.cpu.iew.lsq.thread0.squashedStores       893265                       # Number of stores squashed
system.cpu.iew.lsq.thread0.invAddrSwpfs             0                       # Number of software prefetches ignored due to an invalid address
[...]
system.cpu.dcache.overall_misses::cpu.data        97035                       # number of overall misses
system.cpu.dcache.overall_misses::total         97035                       # number of overall misses
system.cpu.dcache.ReadReq_miss_latency::cpu.data   1865193174                       # number of ReadReq miss cycles
system.cpu.dcache.ReadReq_miss_latency::total   1865193174                       # number of ReadReq miss cycles
system.cpu.dcache.WriteReq_miss_latency::cpu.data   4927606176                       # number of WriteReq miss cycles
system.cpu.dcache.WriteReq_miss_latency::total   4927606176                       # number of WriteReq miss cycles
system.cpu.dcache.LoadLockedReq_miss_latency::cpu.data     26603375                       # number of LoadLockedReq miss cycles
system.cpu.dcache.LoadLockedReq_miss_latency::total     26603375                       # number of LoadLockedReq miss cycles
system.cpu.dcache.demand_miss_latency::cpu.data   6792799350                       # number of demand (read+write) miss cycles
system.cpu.dcache.demand_miss_latency::total   6792799350                       # number of demand (read+write) miss cycles
system.cpu.dcache.overall_miss_latency::cpu.data   6792799350                       # number of overall miss cycles
system.cpu.dcache.overall_miss_latency::total   6792799350                       # number of overall miss cycles
system.cpu.dcache.ReadReq_accesses::cpu.data       157614                       # number of ReadReq accesses(hits+misses)
system.cpu.dcache.ReadReq_accesses::total       157614                       # number of ReadReq accesses(hits+misses)
system.cpu.dcache.WriteReq_accesses::cpu.data       130903                       # number of WriteReq accesses(hits+misses)
system.cpu.dcache.WriteReq_accesses::total       130903                       # number of WriteReq accesses(hits+misses)
system.cpu.dcache.LoadLockedReq_accesses::cpu.data         2728                       # number of LoadLockedReq accesses(hits+misses)
system.cpu.dcache.LoadLockedReq_accesses::total         2728                       # number of LoadLockedReq accesses(hits+misses)
system.cpu.dcache.StoreCondReq_accesses::cpu.data         2476                       # number of StoreCondReq accesses(hits+misses)
system.cpu.dcache.StoreCondReq_accesses::total         2476                       # number of StoreCondReq accesses(hits+misses)
system.cpu.dcache.demand_accesses::cpu.data       288517                       # number of demand (read+write) accesses
system.cpu.dcache.demand_accesses::total       288517                       # number of demand (read+write) accesses
system.cpu.dcache.overall_accesses::cpu.data       288517                       # number of overall (read+write) accesses
system.cpu.dcache.overall_accesses::total       288517                       # number of overall (read+write) accesses
system.cpu.dcache.ReadReq_miss_rate::cpu.data     0.177909                       # miss rate for ReadReq accesses
system.cpu.dcache.ReadReq_miss_rate::total     0.177909                       # miss rate for ReadReq accesses
system.cpu.dcache.WriteReq_miss_rate::cpu.data     0.527062                       # miss rate for WriteReq accesses
system.cpu.dcache.WriteReq_miss_rate::total     0.527062                       # miss rate for WriteReq accesses
system.cpu.dcache.LoadLockedReq_miss_rate::cpu.data     0.135630                       # miss rate for LoadLockedReq accesses
system.cpu.dcache.LoadLockedReq_miss_rate::total     0.135630                       # miss rate for LoadLockedReq accesses
system.cpu.dcache.demand_miss_rate::cpu.data     0.336323                       # miss rate for demand accesses
system.cpu.dcache.demand_miss_rate::total     0.336323                       # miss rate for demand accesses
system.cpu.dcache.overall_miss_rate::cpu.data     0.336323                       # miss rate for overall accesses
system.cpu.dcache.overall_miss_rate::total     0.336323                       # miss rate for overall accesses
system.cpu.dcache.ReadReq_avg_miss_latency::cpu.data 66516.642559                       # average ReadReq miss latency
system.cpu.dcache.ReadReq_avg_miss_latency::total 66516.642559                       # average ReadReq miss latency
system.cpu.dcache.WriteReq_avg_miss_latency::cpu.data 71420.792765                       # average WriteReq miss latency
system.cpu.dcache.WriteReq_avg_miss_latency::total 71420.792765                       # average WriteReq miss latency
system.cpu.dcache.LoadLockedReq_avg_miss_latency::cpu.data 71901.013514                       # average LoadLockedReq miss latency
system.cpu.dcache.LoadLockedReq_avg_miss_latency::total 71901.013514                       # average LoadLockedReq miss latency
system.cpu.dcache.demand_avg_miss_latency::cpu.data 70003.600247                       # average overall miss latency
system.cpu.dcache.demand_avg_miss_latency::total 70003.600247                       # average overall miss latency
system.cpu.dcache.overall_avg_miss_latency::cpu.data 70003.600247                       # average overall miss latency
system.cpu.dcache.overall_avg_miss_latency::total 70003.600247                       # average overall miss latency
system.cpu.dcache.blocked_cycles::no_mshrs        32476                       # number of cycles access was blocked
system.cpu.dcache.blocked_cycles::no_targets            0                       # number of cycles access was blocked
system.cpu.dcache.blocked::no_mshrs              3465                       # number of cycles access was blocked
system.cpu.dcache.blocked::no_targets               0                       # number of cycles access was blocked
system.cpu.dcache.avg_blocked_cycles::no_mshrs     9.372583                       # average number of cycles each access was blocked
system.cpu.dcache.avg_blocked_cycles::no_targets          nan                       # average number of cycles each access was blocked
system.cpu.dcache.fast_writes                       0                       # number of fast writes performed
system.cpu.dcache.cache_copies                      0                       # number of cache copies performed
system.cpu.dcache.writebacks::writebacks        10526                       # number of writebacks
system.cpu.dcache.writebacks::total             10526                       # number of writebacks
system.cpu.dcache.ReadReq_mshr_hits::cpu.data        19994                       # number of ReadReq MSHR hits
system.cpu.dcache.ReadReq_mshr_hits::total        19994                       # number of ReadReq MSHR hits
system.cpu.dcache.WriteReq_mshr_hits::cpu.data        59900                       # number of WriteReq MSHR hits
system.cpu.dcache.WriteReq_mshr_hits::total        59900                       # number of WriteReq MSHR hits
system.cpu.dcache.LoadLockedReq_mshr_hits::cpu.data          177                       # number of LoadLockedReq MSHR hits
system.cpu.dcache.LoadLockedReq_mshr_hits::total          177                       # number of LoadLockedReq MSHR hits
system.cpu.dcache.demand_mshr_hits::cpu.data        79894                       # number of demand (read+write) MSHR hits
system.cpu.dcache.demand_mshr_hits::total        79894                       # number of demand (read+write) MSHR hits
system.cpu.dcache.overall_mshr_hits::cpu.data        79894                       # number of overall MSHR hits
system.cpu.dcache.overall_mshr_hits::total        79894                       # number of overall MSHR hits
system.cpu.dcache.ReadReq_mshr_misses::cpu.data         8047                       # number of ReadReq MSHR misses
system.cpu.dcache.ReadReq_mshr_misses::total         8047                       # number of ReadReq MSHR misses
system.cpu.dcache.WriteReq_mshr_misses::cpu.data         9094                       # number of WriteReq MSHR misses
system.cpu.dcache.WriteReq_mshr_misses::total         9094                       # number of WriteReq MSHR misses
system.cpu.dcache.LoadLockedReq_mshr_misses::cpu.data          193                       # number of LoadLockedReq MSHR misses
system.cpu.dcache.LoadLockedReq_mshr_misses::total          193                       # number of LoadLockedReq MSHR misses
system.cpu.dcache.demand_mshr_misses::cpu.data        17141                       # number of demand (read+write) MSHR misses
system.cpu.dcache.demand_mshr_misses::total        17141                       # number of demand (read+write) MSHR misses
system.cpu.dcache.overall_mshr_misses::cpu.data        17141                       # number of overall MSHR misses
system.cpu.dcache.overall_mshr_misses::total        17141                       # number of overall MSHR misses
system.cpu.dcache.ReadReq_mshr_miss_latency::cpu.data    506209376                       # number of ReadReq MSHR miss cycles
system.cpu.dcache.ReadReq_mshr_miss_latency::total    506209376                       # number of ReadReq MSHR miss cycles
system.cpu.dcache.WriteReq_mshr_miss_latency::cpu.data    611635393                       # number of WriteReq MSHR miss cycles
system.cpu.dcache.WriteReq_mshr_miss_latency::total    611635393                       # number of WriteReq MSHR miss cycles
system.cpu.dcache.LoadLockedReq_mshr_miss_latency::cpu.data     12581350                       # number of LoadLockedReq MSHR miss cycles
system.cpu.dcache.LoadLockedReq_mshr_miss_latency::total     12581350                       # number of LoadLockedReq MSHR miss cycles
system.cpu.dcache.demand_mshr_miss_latency::cpu.data   1117844769                       # number of demand (read+write) MSHR miss cycles
system.cpu.dcache.demand_mshr_miss_latency::total   1117844769                       # number of demand (read+write) MSHR miss cycles
system.cpu.dcache.overall_mshr_miss_latency::cpu.data   1117844769                       # number of overall MSHR miss cycles
system.cpu.dcache.overall_mshr_miss_latency::total   1117844769                       # number of overall MSHR miss cycles
system.cpu.dcache.WriteReq_mshr_uncacheable_latency::cpu.data       618550                       # number of WriteReq MSHR uncacheable cycles
system.cpu.dcache.WriteReq_mshr_uncacheable_latency::total       618550                       # number of WriteReq MSHR uncacheable cycles
system.cpu.dcache.overall_mshr_uncacheable_latency::cpu.data       618550                       # number of overall MSHR uncacheable cycles
system.cpu.dcache.overall_mshr_uncacheable_latency::total       618550                       # number of overall MSHR uncacheable cycles
system.cpu.dcache.ReadReq_mshr_miss_rate::cpu.data     0.051055                       # mshr miss rate for ReadReq accesses
system.cpu.dcache.ReadReq_mshr_miss_rate::total     0.051055                       # mshr miss rate for ReadReq accesses
system.cpu.dcache.WriteReq_mshr_miss_rate::cpu.data     0.069471                       # mshr miss rate for WriteReq accesses
system.cpu.dcache.WriteReq_mshr_miss_rate::total     0.069471                       # mshr miss rate for WriteReq accesses
system.cpu.dcache.LoadLockedReq_mshr_miss_rate::cpu.data     0.070748                       # mshr miss rate for LoadLockedReq accesses
system.cpu.dcache.LoadLockedReq_mshr_miss_rate::total     0.070748                       # mshr miss rate for LoadLockedReq accesses
system.cpu.dcache.demand_mshr_miss_rate::cpu.data     0.059411                       # mshr miss rate for demand accesses
system.cpu.dcache.demand_mshr_miss_rate::total     0.059411                       # mshr miss rate for demand accesses
system.cpu.dcache.overall_mshr_miss_rate::cpu.data     0.059411                       # mshr miss rate for overall accesses
system.cpu.dcache.overall_mshr_miss_rate::total     0.059411                       # mshr miss rate for overall accesses
system.cpu.dcache.ReadReq_avg_mshr_miss_latency::cpu.data 62906.595750                       # average ReadReq mshr miss latency
system.cpu.dcache.ReadReq_avg_mshr_miss_latency::total 62906.595750                       # average ReadReq mshr miss latency
system.cpu.dcache.WriteReq_avg_mshr_miss_latency::cpu.data 67257.025841                       # average WriteReq mshr miss latency
system.cpu.dcache.WriteReq_avg_mshr_miss_latency::total 67257.025841                       # average WriteReq mshr miss latency
system.cpu.dcache.LoadLockedReq_avg_mshr_miss_latency::cpu.data 65188.341969                       # average LoadLockedReq mshr miss latency
system.cpu.dcache.LoadLockedReq_avg_mshr_miss_latency::total 65188.341969                       # average LoadLockedReq mshr miss latency
system.cpu.dcache.demand_avg_mshr_miss_latency::cpu.data 65214.676448                       # average overall mshr miss latency
system.cpu.dcache.demand_avg_mshr_miss_latency::total 65214.676448                       # average overall mshr miss latency
system.cpu.dcache.overall_avg_mshr_miss_latency::cpu.data 65214.676448                       # average overall mshr miss latency
system.cpu.dcache.overall_avg_mshr_miss_latency::total 65214.676448                       # average overall mshr miss latency
system.cpu.dcache.WriteReq_avg_mshr_uncacheable_latency::cpu.data          inf                       # average WriteReq mshr uncacheable latency
system.cpu.dcache.WriteReq_avg_mshr_uncacheable_latency::total          inf                       # average WriteReq mshr uncacheable latency
system.cpu.dcache.overall_avg_mshr_uncacheable_latency::cpu.data          inf                       # average overall mshr uncacheable latency
system.cpu.dcache.overall_avg_mshr_uncacheable_latency::total          inf                       # average overall mshr uncacheable latency
system.cpu.dcache.no_allocate_misses                0                       # Number of misses that were no-allocate
system.cpu.kern.inst.arm                            0                       # number of arm instructions executed
system.cpu.kern.inst.quiesce                        0                       # number of quiesce instructions executed
system.cpu.kern.inst.hwrei                       2756                       # number of hwrei instructions executed
system.cpu.kern.ipl_count::0                      587     48.11%     48.11% # number of times we switched to this ipl
system.cpu.kern.ipl_count::22                       3      0.25%     48.36% # number of times we switched to this ipl
system.cpu.kern.ipl_count::31                     630     51.64%    100.00% # number of times we switched to this ipl
system.cpu.kern.ipl_count::total                 1220                       # number of times we switched to this ipl
system.cpu.kern.ipl_good::0                       585     49.87%     49.87% # number of times we switched to this ipl from a different ipl
system.cpu.kern.ipl_good::22                        3      0.26%     50.13% # number of times we switched to this ipl from a different ipl
system.cpu.kern.ipl_good::31                      585     49.87%    100.00% # number of times we switched to this ipl from a different ipl
system.cpu.kern.ipl_good::total                  1173                       # number of times we switched to this ipl from a different ipl
system.cpu.kern.ipl_ticks::0               2353654400     89.14%     89.14% # number of cycles we spent at this ipl
system.cpu.kern.ipl_ticks::22                 3285475      0.12%     89.26% # number of cycles we spent at this ipl
system.cpu.kern.ipl_ticks::31               283604575     10.74%    100.00% # number of cycles we spent at this ipl
system.cpu.kern.ipl_ticks::total           2640544450                       # number of cycles we spent at this ipl
system.cpu.kern.ipl_used::0                  0.996593                       # fraction of swpipl calls that actually changed the ipl
system.cpu.kern.ipl_used::22                        1                       # fraction of swpipl calls that actually changed the ipl
system.cpu.kern.ipl_used::31                 0.928571                       # fraction of swpipl calls that actually changed the ipl
system.cpu.kern.ipl_used::total              0.961475                       # fraction of swpipl calls that actually changed the ipl
system.cpu.kern.syscall::2                          1      5.88%      5.88% # number of syscalls executed
system.cpu.kern.syscall::3                          2     11.76%     17.65% # number of syscalls executed
system.cpu.kern.syscall::6                          2     11.76%     29.41% # number of syscalls executed
system.cpu.kern.syscall::17                         1      5.88%     35.29% # number of syscalls executed
system.cpu.kern.syscall::33                         1      5.88%     41.18% # number of syscalls executed
system.cpu.kern.syscall::45                         3     17.65%     58.82% # number of syscalls executed
system.cpu.kern.syscall::48                         1      5.88%     64.71% # number of syscalls executed
system.cpu.kern.syscall::59                         1      5.88%     70.59% # number of syscalls executed
system.cpu.kern.syscall::71                         4     23.53%     94.12% # number of syscalls executed
system.cpu.kern.syscall::74                         1      5.88%    100.00% # number of syscalls executed
system.cpu.kern.syscall::total                     17                       # number of syscalls executed
system.cpu.kern.callpal::swpctx                   121      8.70%      8.70% # number of callpals executed
system.cpu.kern.callpal::tbi                        6      0.43%      9.13% # number of callpals executed
system.cpu.kern.callpal::swpipl                  1027     73.83%     82.96% # number of callpals executed
system.cpu.kern.callpal::rdps                       7      0.50%     83.47% # number of callpals executed
system.cpu.kern.callpal::wrusp                      1      0.07%     83.54% # number of callpals executed
system.cpu.kern.callpal::rdusp                      1      0.07%     83.61% # number of callpals executed
system.cpu.kern.callpal::rti                      190     13.66%     97.27% # number of callpals executed
system.cpu.kern.callpal::callsys                   34      2.44%     99.71% # number of callpals executed
system.cpu.kern.callpal::imb                        4      0.29%    100.00% # number of callpals executed
system.cpu.kern.callpal::total                   1391                       # number of callpals executed
system.cpu.kern.mode_switch::kernel               311                       # number of protection mode switches
system.cpu.kern.mode_switch::user                 187                       # number of protection mode switches
system.cpu.kern.mode_switch::idle                   0                       # number of protection mode switches
system.cpu.kern.mode_good::kernel                 187                      
system.cpu.kern.mode_good::user                   187                      
system.cpu.kern.mode_good::idle                     0                      
system.cpu.kern.mode_switch_good::kernel     0.601286                       # fraction of useful protection mode switches
system.cpu.kern.mode_switch_good::user              1                       # fraction of useful protection mode switches
system.cpu.kern.mode_switch_good::idle            nan                       # fraction of useful protection mode switches
system.cpu.kern.mode_switch_good::total      0.751004                       # fraction of useful protection mode switches
system.cpu.kern.mode_ticks::kernel         1713390750     64.89%     64.89% # number of ticks spent at the given mode
system.cpu.kern.mode_ticks::user            927153700     35.11%    100.00% # number of ticks spent at the given mode
system.cpu.kern.mode_ticks::idle                    0      0.00%    100.00% # number of ticks spent at the given mode
system.cpu.kern.swap_context                      121                       # number of times the context was actually changed

---------- End Simulation Statistics   ----------
