
---------- Begin Simulation Statistics ----------
sim_seconds                                  2.468380                       # Number of seconds simulated
sim_ticks                                2468379757000                       # Number of ticks simulated
final_tick                               2468379757000                       # Number of ticks from beginning of simulation (restored from checkpoints and never reset)
sim_freq                                 1000000000000                       # Frequency of simulated ticks
host_inst_rate                                 111504                       # Simulator instruction rate (inst/s)
host_op_rate                                   111504                       # Simulator op (including micro ops) rate (op/s)
host_tick_rate                             3112112053                       # Simulator tick rate (ticks/s)
host_mem_usage                                 458476                       # Number of bytes of host memory used
host_seconds                                   793.15                       # Real time elapsed on the host
sim_insts                                    88439290                       # Number of instructions simulated
sim_ops                                      88439290                       # Number of ops (including micro ops) simulated
system.voltage_domain.voltage                       1                       # Voltage in Volts
system.clk_domain.clock                          1000                       # Clock period in ticks
system.mem_ctrls.bytes_read::cpu.inst        90191936                       # Number of bytes read from this memory
system.mem_ctrls.bytes_read::cpu.data       184962752                       # Number of bytes read from this memory
system.mem_ctrls.bytes_read::tsunami.ide         4096                       # Number of bytes read from this memory
system.mem_ctrls.bytes_read::total          275158784                       # Number of bytes read from this memory
system.mem_ctrls.bytes_inst_read::cpu.inst     90191936                       # Number of instructions bytes read from this memory
system.mem_ctrls.bytes_inst_read::total      90191936                       # Number of instructions bytes read from this memory
system.mem_ctrls.bytes_written::writebacks     30561280                       # Number of bytes written to this memory
system.mem_ctrls.bytes_written::tsunami.ide      2832384                       # Number of bytes written to this memory
system.mem_ctrls.bytes_written::total        33393664                       # Number of bytes written to this memory
system.mem_ctrls.num_reads::cpu.inst          1409249                       # Number of read requests responded to by this memory
system.mem_ctrls.num_reads::cpu.data          2890043                       # Number of read requests responded to by this memory
system.mem_ctrls.num_reads::tsunami.ide            64                       # Number of read requests responded to by this memory
system.mem_ctrls.num_reads::total             4299356                       # Number of read requests responded to by this memory
system.mem_ctrls.num_writes::writebacks        477520                       # Number of write requests responded to by this memory
system.mem_ctrls.num_writes::tsunami.ide        44256                       # Number of write requests responded to by this memory
system.mem_ctrls.num_writes::total             521776                       # Number of write requests responded to by this memory
system.mem_ctrls.bw_read::cpu.inst           36538922                       # Total read bandwidth from this memory (bytes/s)
system.mem_ctrls.bw_read::cpu.data           74932859                       # Total read bandwidth from this memory (bytes/s)
system.mem_ctrls.bw_read::tsunami.ide            1659                       # Total read bandwidth from this memory (bytes/s)
system.mem_ctrls.bw_read::total             111473441                       # Total read bandwidth from this memory (bytes/s)
system.mem_ctrls.bw_inst_read::cpu.inst      36538922                       # Instruction read bandwidth from this memory (bytes/s)
system.mem_ctrls.bw_inst_read::total         36538922                       # Instruction read bandwidth from this memory (bytes/s)
system.mem_ctrls.bw_write::writebacks        12381109                       # Write bandwidth from this memory (bytes/s)
system.mem_ctrls.bw_write::tsunami.ide        1147467                       # Write bandwidth from this memory (bytes/s)
system.mem_ctrls.bw_write::total             13528576                       # Write bandwidth from this memory (bytes/s)
system.mem_ctrls.bw_total::writebacks        12381109                       # Total bandwidth to/from this memory (bytes/s)
system.mem_ctrls.bw_total::cpu.inst          36538922                       # Total bandwidth to/from this memory (bytes/s)
system.mem_ctrls.bw_total::cpu.data          74932859                       # Total bandwidth to/from this memory (bytes/s)
system.mem_ctrls.bw_total::tsunami.ide        1149126                       # Total bandwidth to/from this memory (bytes/s)
system.mem_ctrls.bw_total::total            125002017                       # Total bandwidth to/from this memory (bytes/s)
system.mem_ctrls.readReqs                     4299356                       # Number of read requests accepted
system.mem_ctrls.writeReqs                     521776                       # Number of write requests accepted
system.mem_ctrls.readBursts                   4299356                       # Number of DRAM read bursts, including those serviced by the write queue
system.mem_ctrls.writeBursts                   521776                       # Number of DRAM write bursts, including those merged in the write queue
system.mem_ctrls.bytesReadDRAM              272651328                       # Total number of bytes read from DRAM
system.mem_ctrls.bytesReadWrQ                 2507456                       # Total number of bytes read from write queue
system.mem_ctrls.bytesWritten                32957376                       # Total number of bytes written to DRAM
system.mem_ctrls.bytesReadSys               275158784                       # Total read bytes from the system interface side
system.mem_ctrls.bytesWrittenSys             33393664                       # Total written bytes from the system interface side
system.mem_ctrls.servicedByWrQ                  39179                       # Number of DRAM read bursts serviced by the write queue
system.mem_ctrls.mergedWrBursts                  6799                       # Number of DRAM write bursts merged with an existing one
system.mem_ctrls.neitherReadNorWriteReqs          146                       # Number of requests that are neither read nor write
system.mem_ctrls.perBankRdBursts::0            414694                       # Per bank write bursts
system.mem_ctrls.perBankRdBursts::1            434839                       # Per bank write bursts
system.mem_ctrls.perBankRdBursts::2            192718                       # Per bank write bursts
system.mem_ctrls.perBankRdBursts::3            203049                       # Per bank write bursts
system.mem_ctrls.perBankRdBursts::4            225892                       # Per bank write bursts
system.mem_ctrls.perBankRdBursts::5            193341                       # Per bank write bursts
system.mem_ctrls.perBankRdBursts::6            216985                       # Per bank write bursts
system.mem_ctrls.perBankRdBursts::7            238917                       # Per bank write bursts
system.mem_ctrls.perBankRdBursts::8            280467                       # Per bank write bursts
system.mem_ctrls.perBankRdBursts::9            241255                       # Per bank write bursts
system.mem_ctrls.perBankRdBursts::10           261748                       # Per bank write bursts
system.mem_ctrls.perBankRdBursts::11           327162                       # Per bank write bursts
system.mem_ctrls.perBankRdBursts::12           326584                       # Per bank write bursts
system.mem_ctrls.perBankRdBursts::13           264655                       # Per bank write bursts
system.mem_ctrls.perBankRdBursts::14           198849                       # Per bank write bursts
system.mem_ctrls.perBankRdBursts::15           239022                       # Per bank write bursts
system.mem_ctrls.perBankWrBursts::0             22998                       # Per bank write bursts
system.mem_ctrls.perBankWrBursts::1             61553                       # Per bank write bursts
system.mem_ctrls.perBankWrBursts::2             37282                       # Per bank write bursts
system.mem_ctrls.perBankWrBursts::3             22517                       # Per bank write bursts
system.mem_ctrls.perBankWrBursts::4             19289                       # Per bank write bursts
system.mem_ctrls.perBankWrBursts::5             18115                       # Per bank write bursts
system.mem_ctrls.perBankWrBursts::6             21120                       # Per bank write bursts
system.mem_ctrls.perBankWrBursts::7             28407                       # Per bank write bursts
system.mem_ctrls.perBankWrBursts::8             31218                       # Per bank write bursts
system.mem_ctrls.perBankWrBursts::9             36947                       # Per bank write bursts
system.mem_ctrls.perBankWrBursts::10            29790                       # Per bank write bursts
system.mem_ctrls.perBankWrBursts::11            56948                       # Per bank write bursts
system.mem_ctrls.perBankWrBursts::12            33242                       # Per bank write bursts
system.mem_ctrls.perBankWrBursts::13            41004                       # Per bank write bursts
system.mem_ctrls.perBankWrBursts::14            24040                       # Per bank write bursts
system.mem_ctrls.perBankWrBursts::15            30489                       # Per bank write bursts
system.mem_ctrls.numRdRetry                         0                       # Number of times read queue was full causing retry
system.mem_ctrls.numWrRetry                        25                       # Number of times write queue was full causing retry
system.mem_ctrls.totGap                  2468379679000                       # Total gap between requests
system.mem_ctrls.readPktSize::0                     0                       # Read request sizes (log2)
system.mem_ctrls.readPktSize::1                     0                       # Read request sizes (log2)
system.mem_ctrls.readPktSize::2                     0                       # Read request sizes (log2)
system.mem_ctrls.readPktSize::3                     0                       # Read request sizes (log2)
system.mem_ctrls.readPktSize::4                     0                       # Read request sizes (log2)
system.mem_ctrls.readPktSize::5                     0                       # Read request sizes (log2)
system.mem_ctrls.readPktSize::6               4299356                       # Read request sizes (log2)
system.mem_ctrls.writePktSize::0                    0                       # Write request sizes (log2)
system.mem_ctrls.writePktSize::1                    0                       # Write request sizes (log2)
system.mem_ctrls.writePktSize::2                    0                       # Write request sizes (log2)
system.mem_ctrls.writePktSize::3                    0                       # Write request sizes (log2)
system.mem_ctrls.writePktSize::4                    0                       # Write request sizes (log2)
system.mem_ctrls.writePktSize::5                    0                       # Write request sizes (log2)
system.mem_ctrls.writePktSize::6               521776                       # Write request sizes (log2)
system.mem_ctrls.rdQLenPdf::0                 3024202                       # What read queue length does an incoming req see
system.mem_ctrls.rdQLenPdf::1                  982268                       # What read queue length does an incoming req see
system.mem_ctrls.rdQLenPdf::2                  205037                       # What read queue length does an incoming req see
system.mem_ctrls.rdQLenPdf::3                   45123                       # What read queue length does an incoming req see
system.mem_ctrls.rdQLenPdf::4                    3275                       # What read queue length does an incoming req see
system.mem_ctrls.rdQLenPdf::5                     236                       # What read queue length does an incoming req see
system.mem_ctrls.rdQLenPdf::6                       9                       # What read queue length does an incoming req see
system.mem_ctrls.rdQLenPdf::7                       4                       # What read queue length does an incoming req see
system.mem_ctrls.rdQLenPdf::8                       4                       # What read queue length does an incoming req see
system.mem_ctrls.rdQLenPdf::9                       6                       # What read queue length does an incoming req see
system.mem_ctrls.rdQLenPdf::10                      3                       # What read queue length does an incoming req see
system.mem_ctrls.rdQLenPdf::11                      1                       # What read queue length does an incoming req see
system.mem_ctrls.rdQLenPdf::12                      1                       # What read queue length does an incoming req see
system.mem_ctrls.rdQLenPdf::13                      1                       # What read queue length does an incoming req see
system.mem_ctrls.rdQLenPdf::14                      1                       # What read queue length does an incoming req see
system.mem_ctrls.rdQLenPdf::15                      1                       # What read queue length does an incoming req see
system.mem_ctrls.rdQLenPdf::16                      1                       # What read queue length does an incoming req see
system.mem_ctrls.rdQLenPdf::17                      1                       # What read queue length does an incoming req see
system.mem_ctrls.rdQLenPdf::18                      1                       # What read queue length does an incoming req see
system.mem_ctrls.rdQLenPdf::19                      1                       # What read queue length does an incoming req see
system.mem_ctrls.rdQLenPdf::20                      1                       # What read queue length does an incoming req see
system.mem_ctrls.rdQLenPdf::21                      0                       # What read queue length does an incoming req see
system.mem_ctrls.rdQLenPdf::22                      0                       # What read queue length does an incoming req see
system.mem_ctrls.rdQLenPdf::23                      0                       # What read queue length does an incoming req see
system.mem_ctrls.rdQLenPdf::24                      0                       # What read queue length does an incoming req see
system.mem_ctrls.rdQLenPdf::25                      0                       # What read queue length does an incoming req see
system.mem_ctrls.rdQLenPdf::26                      0                       # What read queue length does an incoming req see
system.mem_ctrls.rdQLenPdf::27                      0                       # What read queue length does an incoming req see
system.mem_ctrls.rdQLenPdf::28                      0                       # What read queue length does an incoming req see
system.mem_ctrls.rdQLenPdf::29                      0                       # What read queue length does an incoming req see
system.mem_ctrls.rdQLenPdf::30                      0                       # What read queue length does an incoming req see
system.mem_ctrls.rdQLenPdf::31                      0                       # What read queue length does an incoming req see
system.mem_ctrls.wrQLenPdf::0                       1                       # What write queue length does an incoming req see
system.mem_ctrls.wrQLenPdf::1                       1                       # What write queue length does an incoming req see
system.mem_ctrls.wrQLenPdf::2                       1                       # What write queue length does an incoming req see
system.mem_ctrls.wrQLenPdf::3                       1                       # What write queue length does an incoming req see
system.mem_ctrls.wrQLenPdf::4                       1                       # What write queue length does an incoming req see
system.mem_ctrls.wrQLenPdf::5                       1                       # What write queue length does an incoming req see
system.mem_ctrls.wrQLenPdf::6                       1                       # What write queue length does an incoming req see
system.mem_ctrls.wrQLenPdf::7                       1                       # What write queue length does an incoming req see
system.mem_ctrls.wrQLenPdf::8                       1                       # What write queue length does an incoming req see
system.mem_ctrls.wrQLenPdf::9                       1                       # What write queue length does an incoming req see
system.mem_ctrls.wrQLenPdf::10                      1                       # What write queue length does an incoming req see
system.mem_ctrls.wrQLenPdf::11                      1                       # What write queue length does an incoming req see
system.mem_ctrls.wrQLenPdf::12                      1                       # What write queue length does an incoming req see
system.mem_ctrls.wrQLenPdf::13                      1                       # What write queue length does an incoming req see
system.mem_ctrls.wrQLenPdf::14                      1                       # What write queue length does an incoming req see
system.mem_ctrls.wrQLenPdf::15                   3051                       # What write queue length does an incoming req see
system.mem_ctrls.wrQLenPdf::16                   3673                       # What write queue length does an incoming req see
system.mem_ctrls.wrQLenPdf::17                  18855                       # What write queue length does an incoming req see
system.mem_ctrls.wrQLenPdf::18                  22569                       # What write queue length does an incoming req see
system.mem_ctrls.wrQLenPdf::19                  26827                       # What write queue length does an incoming req see
system.mem_ctrls.wrQLenPdf::20                  29359                       # What write queue length does an incoming req see
system.mem_ctrls.wrQLenPdf::21                  30722                       # What write queue length does an incoming req see
system.mem_ctrls.wrQLenPdf::22                  32112                       # What write queue length does an incoming req see
system.mem_ctrls.wrQLenPdf::23                  33272                       # What write queue length does an incoming req see
system.mem_ctrls.wrQLenPdf::24                  34986                       # What write queue length does an incoming req see
system.mem_ctrls.wrQLenPdf::25                  35559                       # What write queue length does an incoming req see
system.mem_ctrls.wrQLenPdf::26                  34433                       # What write queue length does an incoming req see
system.mem_ctrls.wrQLenPdf::27                  34092                       # What write queue length does an incoming req see
system.mem_ctrls.wrQLenPdf::28                  34683                       # What write queue length does an incoming req see
system.mem_ctrls.wrQLenPdf::29                  32806                       # What write queue length does an incoming req see
system.mem_ctrls.wrQLenPdf::30                  32716                       # What write queue length does an incoming req see
system.mem_ctrls.wrQLenPdf::31                  32580                       # What write queue length does an incoming req see
system.mem_ctrls.wrQLenPdf::32                  32277                       # What write queue length does an incoming req see
system.mem_ctrls.wrQLenPdf::33                   1446                       # What write queue length does an incoming req see
system.mem_ctrls.wrQLenPdf::34                   1129                       # What write queue length does an incoming req see
system.mem_ctrls.wrQLenPdf::35                    921                       # What write queue length does an incoming req see
system.mem_ctrls.wrQLenPdf::36                    727                       # What write queue length does an incoming req see
system.mem_ctrls.wrQLenPdf::37                    611                       # What write queue length does an incoming req see
system.mem_ctrls.wrQLenPdf::38                    513                       # What write queue length does an incoming req see
system.mem_ctrls.wrQLenPdf::39                    427                       # What write queue length does an incoming req see
system.mem_ctrls.wrQLenPdf::40                    369                       # What write queue length does an incoming req see
system.mem_ctrls.wrQLenPdf::41                    334                       # What write queue length does an incoming req see
system.mem_ctrls.wrQLenPdf::42                    289                       # What write queue length does an incoming req see
system.mem_ctrls.wrQLenPdf::43                    263                       # What write queue length does an incoming req see
system.mem_ctrls.wrQLenPdf::44                    244                       # What write queue length does an incoming req see
system.mem_ctrls.wrQLenPdf::45                    225                       # What write queue length does an incoming req see
system.mem_ctrls.wrQLenPdf::46                    226                       # What write queue length does an incoming req see
system.mem_ctrls.wrQLenPdf::47                    207                       # What write queue length does an incoming req see
system.mem_ctrls.wrQLenPdf::48                    204                       # What write queue length does an incoming req see
system.mem_ctrls.wrQLenPdf::49                    204                       # What write queue length does an incoming req see
system.mem_ctrls.wrQLenPdf::50                    213                       # What write queue length does an incoming req see
system.mem_ctrls.wrQLenPdf::51                    196                       # What write queue length does an incoming req see
system.mem_ctrls.wrQLenPdf::52                    167                       # What write queue length does an incoming req see
system.mem_ctrls.wrQLenPdf::53                    158                       # What write queue length does an incoming req see
system.mem_ctrls.wrQLenPdf::54                    147                       # What write queue length does an incoming req see
system.mem_ctrls.wrQLenPdf::55                    138                       # What write queue length does an incoming req see
system.mem_ctrls.wrQLenPdf::56                    154                       # What write queue length does an incoming req see
system.mem_ctrls.wrQLenPdf::57                    161                       # What write queue length does an incoming req see
system.mem_ctrls.wrQLenPdf::58                    164                       # What write queue length does an incoming req see
system.mem_ctrls.wrQLenPdf::59                    142                       # What write queue length does an incoming req see
system.mem_ctrls.wrQLenPdf::60                    141                       # What write queue length does an incoming req see
system.mem_ctrls.wrQLenPdf::61                    109                       # What write queue length does an incoming req see
system.mem_ctrls.wrQLenPdf::62                     91                       # What write queue length does an incoming req see
system.mem_ctrls.wrQLenPdf::63                     70                       # What write queue length does an incoming req see
system.mem_ctrls.bytesPerActivate::samples      1036422                       # Bytes accessed per row activation
system.mem_ctrls.bytesPerActivate::mean    294.866022                       # Bytes accessed per row activation
system.mem_ctrls.bytesPerActivate::gmean   170.282896                       # Bytes accessed per row activation
system.mem_ctrls.bytesPerActivate::stdev   329.441082                       # Bytes accessed per row activation
system.mem_ctrls.bytesPerActivate::0-127       414371     39.98%     39.98% # Bytes accessed per row activation
system.mem_ctrls.bytesPerActivate::128-255       265689     25.64%     65.62% # Bytes accessed per row activation
system.mem_ctrls.bytesPerActivate::256-383        85290      8.23%     73.85% # Bytes accessed per row activation
system.mem_ctrls.bytesPerActivate::384-511        51020      4.92%     78.77% # Bytes accessed per row activation
system.mem_ctrls.bytesPerActivate::512-639        36816      3.55%     82.32% # Bytes accessed per row activation
system.mem_ctrls.bytesPerActivate::640-767        22666      2.19%     84.51% # Bytes accessed per row activation
system.mem_ctrls.bytesPerActivate::768-895        17927      1.73%     86.24% # Bytes accessed per row activation
system.mem_ctrls.bytesPerActivate::896-1023        15364      1.48%     87.72% # Bytes accessed per row activation
system.mem_ctrls.bytesPerActivate::1024-1151       127279     12.28%    100.00% # Bytes accessed per row activation
system.mem_ctrls.bytesPerActivate::total      1036422                       # Bytes accessed per row activation
system.mem_ctrls.rdPerTurnAround::samples        31258                       # Reads before turning the bus around for writes
system.mem_ctrls.rdPerTurnAround::mean     136.289718                       # Reads before turning the bus around for writes
system.mem_ctrls.rdPerTurnAround::stdev   5838.479474                       # Reads before turning the bus around for writes
system.mem_ctrls.rdPerTurnAround::0-32767        31257    100.00%    100.00% # Reads before turning the bus around for writes
system.mem_ctrls.rdPerTurnAround::1.01581e+06-1.04858e+06            1      0.00%    100.00% # Reads before turning the bus around for writes
system.mem_ctrls.rdPerTurnAround::total         31258                       # Reads before turning the bus around for writes
system.mem_ctrls.wrPerTurnAround::samples        31258                       # Writes before turning the bus around for reads
system.mem_ctrls.wrPerTurnAround::mean      16.474471                       # Writes before turning the bus around for reads
system.mem_ctrls.wrPerTurnAround::gmean     16.321403                       # Writes before turning the bus around for reads
system.mem_ctrls.wrPerTurnAround::stdev      4.219094                       # Writes before turning the bus around for reads
system.mem_ctrls.wrPerTurnAround::16-19         30982     99.12%     99.12% # Writes before turning the bus around for reads
system.mem_ctrls.wrPerTurnAround::20-23           106      0.34%     99.46% # Writes before turning the bus around for reads
system.mem_ctrls.wrPerTurnAround::24-27            12      0.04%     99.49% # Writes before turning the bus around for reads
system.mem_ctrls.wrPerTurnAround::28-31            59      0.19%     99.68% # Writes before turning the bus around for reads
system.mem_ctrls.wrPerTurnAround::32-35            11      0.04%     99.72% # Writes before turning the bus around for reads
system.mem_ctrls.wrPerTurnAround::36-39             5      0.02%     99.73% # Writes before turning the bus around for reads
system.mem_ctrls.wrPerTurnAround::40-43             2      0.01%     99.74% # Writes before turning the bus around for reads
system.mem_ctrls.wrPerTurnAround::44-47             3      0.01%     99.75% # Writes before turning the bus around for reads
system.mem_ctrls.wrPerTurnAround::48-51             4      0.01%     99.76% # Writes before turning the bus around for reads
system.mem_ctrls.wrPerTurnAround::56-59             1      0.00%     99.77% # Writes before turning the bus around for reads
system.mem_ctrls.wrPerTurnAround::60-63             2      0.01%     99.77% # Writes before turning the bus around for reads
system.mem_ctrls.wrPerTurnAround::64-67             2      0.01%     99.78% # Writes before turning the bus around for reads
system.mem_ctrls.wrPerTurnAround::72-75             1      0.00%     99.78% # Writes before turning the bus around for reads
system.mem_ctrls.wrPerTurnAround::80-83             6      0.02%     99.80% # Writes before turning the bus around for reads
system.mem_ctrls.wrPerTurnAround::84-87             1      0.00%     99.80% # Writes before turning the bus around for reads
system.mem_ctrls.wrPerTurnAround::88-91             1      0.00%     99.81% # Writes before turning the bus around for reads
system.mem_ctrls.wrPerTurnAround::92-95             2      0.01%     99.81% # Writes before turning the bus around for reads
system.mem_ctrls.wrPerTurnAround::96-99            46      0.15%     99.96% # Writes before turning the bus around for reads
system.mem_ctrls.wrPerTurnAround::100-103            2      0.01%     99.97% # Writes before turning the bus around for reads
system.mem_ctrls.wrPerTurnAround::104-107            1      0.00%     99.97% # Writes before turning the bus around for reads
system.mem_ctrls.wrPerTurnAround::120-123            1      0.00%     99.97% # Writes before turning the bus around for reads
system.mem_ctrls.wrPerTurnAround::128-131            3      0.01%     99.98% # Writes before turning the bus around for reads
system.mem_ctrls.wrPerTurnAround::132-135            1      0.00%     99.99% # Writes before turning the bus around for reads
system.mem_ctrls.wrPerTurnAround::140-143            1      0.00%     99.99% # Writes before turning the bus around for reads
system.mem_ctrls.wrPerTurnAround::144-147            2      0.01%    100.00% # Writes before turning the bus around for reads
system.mem_ctrls.wrPerTurnAround::160-163            1      0.00%    100.00% # Writes before turning the bus around for reads
system.mem_ctrls.wrPerTurnAround::total         31258                       # Writes before turning the bus around for reads
system.mem_ctrls.totQLat                  40329375251                       # Total ticks spent queuing
system.mem_ctrls.totMemAccLat            120207694001                       # Total ticks spent from burst creation until serviced by the DRAM
system.mem_ctrls.totBusLat                21300885000                       # Total ticks spent in databus transfers
system.mem_ctrls.avgQLat                      9466.60                       # Average queueing delay per DRAM burst
system.mem_ctrls.avgBusLat                    5000.00                       # Average bus latency per DRAM burst
system.mem_ctrls.avgMemAccLat                28216.60                       # Average memory access latency per DRAM burst
system.mem_ctrls.avgRdBW                       110.46                       # Average DRAM read bandwidth in MiByte/s
system.mem_ctrls.avgWrBW                        13.35                       # Average achieved write bandwidth in MiByte/s
system.mem_ctrls.avgRdBWSys                    111.47                       # Average system read bandwidth in MiByte/s
system.mem_ctrls.avgWrBWSys                     13.53                       # Average system write bandwidth in MiByte/s
system.mem_ctrls.peakBW                      12800.00                       # Theoretical peak bandwidth in MiByte/s
system.mem_ctrls.busUtil                         0.97                       # Data bus utilization in percentage
system.mem_ctrls.busUtilRead                     0.86                       # Data bus utilization in percentage for reads
system.mem_ctrls.busUtilWrite                    0.10                       # Data bus utilization in percentage for writes
system.mem_ctrls.avgRdQLen                       1.04                       # Average read queue length when enqueuing
system.mem_ctrls.avgWrQLen                      26.39                       # Average write queue length when enqueuing
system.mem_ctrls.readRowHits                  3386507                       # Number of row buffer hits during reads
system.mem_ctrls.writeRowHits                  352191                       # Number of row buffer hits during writes
system.mem_ctrls.readRowHitRate                 79.49                       # Row buffer hit rate for reads
system.mem_ctrls.writeRowHitRate                68.39                       # Row buffer hit rate for writes
system.mem_ctrls.avgGap                     511991.72                       # Average gap between requests
system.mem_ctrls.pageHitRate                    78.29                       # Row buffer hit rate, read and write combined
system.mem_ctrls.memoryStateTime::IDLE   2168439117250                       # Time in different power states
system.mem_ctrls.memoryStateTime::REF     82424420000                       # Time in different power states
system.mem_ctrls.memoryStateTime::PRE_PDN            0                       # Time in different power states
system.mem_ctrls.memoryStateTime::ACT    217510358000                       # Time in different power states
system.mem_ctrls.memoryStateTime::ACT_PDN            0                       # Time in different power states
system.mem_ctrls.actEnergy::0              3297225960                       # Energy for activate commands per rank (pJ)
system.mem_ctrls.actEnergy::1              4537784160                       # Energy for activate commands per rank (pJ)
system.mem_ctrls.preEnergy::0              1799081625                       # Energy for precharge commands per rank (pJ)
system.mem_ctrls.preEnergy::1              2475973500                       # Energy for precharge commands per rank (pJ)
system.mem_ctrls.readEnergy::0            16539034200                       # Energy for read commands per rank (pJ)
system.mem_ctrls.readEnergy::1            16689488400                       # Energy for read commands per rank (pJ)
system.mem_ctrls.writeEnergy::0            1498512960                       # Energy for write commands per rank (pJ)
system.mem_ctrls.writeEnergy::1            1838097360                       # Energy for write commands per rank (pJ)
system.mem_ctrls.refreshEnergy::0        161222165520                       # Energy for refresh commands per rank (pJ)
system.mem_ctrls.refreshEnergy::1        161222165520                       # Energy for refresh commands per rank (pJ)
system.mem_ctrls.actBackEnergy::0        177048734265                       # Energy for active background per rank (pJ)
system.mem_ctrls.actBackEnergy::1        180964198215                       # Energy for active background per rank (pJ)
system.mem_ctrls.preBackEnergy::0        1325718422250                       # Energy for precharge background per rank (pJ)
system.mem_ctrls.preBackEnergy::1        1322283804750                       # Energy for precharge background per rank (pJ)
system.mem_ctrls.totalEnergy::0          1687123176780                       # Total energy per rank (pJ)
system.mem_ctrls.totalEnergy::1          1690011511905                       # Total energy per rank (pJ)
system.mem_ctrls.averagePower::0           683.495798                       # Core power per rank (mW)
system.mem_ctrls.averagePower::1           684.665935                       # Core power per rank (mW)
system.membus.trans_dist::ReadReq             3993993                       # Transaction distribution
system.membus.trans_dist::ReadResp            3993677                       # Transaction distribution
system.membus.trans_dist::WriteReq              10433                       # Transaction distribution
system.membus.trans_dist::WriteResp             10433                       # Transaction distribution
system.membus.trans_dist::Writeback            477520                       # Transaction distribution
system.membus.trans_dist::WriteInvalidateReq        44256                       # Transaction distribution
system.membus.trans_dist::WriteInvalidateResp        44256                       # Transaction distribution
system.membus.trans_dist::UpgradeReq              133                       # Transaction distribution
system.membus.trans_dist::SCUpgradeReq             13                       # Transaction distribution
system.membus.trans_dist::UpgradeResp             146                       # Transaction distribution
system.membus.trans_dist::ReadExReq            313567                       # Transaction distribution
system.membus.trans_dist::ReadExResp           313567                       # Transaction distribution
system.membus.trans_dist::BadAddressError          316                       # Transaction distribution
system.membus.pkt_count_system.iocache.mem_side::system.mem_ctrls.port        88786                       # Packet count per connected master and slave (bytes)
system.membus.pkt_count_system.iocache.mem_side::total        88786                       # Packet count per connected master and slave (bytes)
system.membus.pkt_count_system.cpu.icache.mem_side::system.mem_ctrls.port      2818769                       # Packet count per connected master and slave (bytes)
system.membus.pkt_count_system.cpu.icache.mem_side::total      2818769                       # Packet count per connected master and slave (bytes)
system.membus.pkt_count_system.cpu.dcache.mem_side::system.bridge.slave        35808                       # Packet count per connected master and slave (bytes)
system.membus.pkt_count_system.cpu.dcache.mem_side::system.mem_ctrls.port      6257898                       # Packet count per connected master and slave (bytes)
system.membus.pkt_count_system.cpu.dcache.mem_side::system.membus.badaddr_responder.pio          632                       # Packet count per connected master and slave (bytes)
system.membus.pkt_count_system.cpu.dcache.mem_side::total      6294338                       # Packet count per connected master and slave (bytes)
system.membus.pkt_count::total                9201893                       # Packet count per connected master and slave (bytes)
system.membus.pkt_size_system.iocache.mem_side::system.mem_ctrls.port      2836480                       # Cumulative packet size per connected master and slave (bytes)
system.membus.pkt_size_system.iocache.mem_side::total      2836480                       # Cumulative packet size per connected master and slave (bytes)
system.membus.pkt_size_system.cpu.icache.mem_side::system.mem_ctrls.port     90191936                       # Cumulative packet size per connected master and slave (bytes)
system.membus.pkt_size_system.cpu.icache.mem_side::total     90191936                       # Cumulative packet size per connected master and slave (bytes)
system.membus.pkt_size_system.cpu.dcache.mem_side::system.bridge.slave        46759                       # Cumulative packet size per connected master and slave (bytes)
system.membus.pkt_size_system.cpu.dcache.mem_side::system.mem_ctrls.port    215524032                       # Cumulative packet size per connected master and slave (bytes)
system.membus.pkt_size_system.cpu.dcache.mem_side::total    215570791                       # Cumulative packet size per connected master and slave (bytes)
system.membus.pkt_size::total               308599207                       # Cumulative packet size per connected master and slave (bytes)
system.membus.snoops                              417                       # Total snoops (count)
system.membus.snoop_fanout::samples           4822036                       # Request fanout histogram
system.membus.snoop_fanout::mean                    2                       # Request fanout histogram
system.membus.snoop_fanout::stdev                   0                       # Request fanout histogram
system.membus.snoop_fanout::underflows              0      0.00%      0.00% # Request fanout histogram
system.membus.snoop_fanout::0                       0      0.00%      0.00% # Request fanout histogram
system.membus.snoop_fanout::1                       0      0.00%      0.00% # Request fanout histogram
system.membus.snoop_fanout::2                 4822036    100.00%    100.00% # Request fanout histogram
system.membus.snoop_fanout::3                       0      0.00%    100.00% # Request fanout histogram
system.membus.snoop_fanout::overflows               0      0.00%    100.00% # Request fanout histogram
system.membus.snoop_fanout::min_value               2                       # Request fanout histogram
system.membus.snoop_fanout::max_value               2                       # Request fanout histogram
system.membus.snoop_fanout::total             4822036                       # Request fanout histogram
system.membus.reqLayer0.occupancy            28337000                       # Layer occupancy (ticks)
system.membus.reqLayer0.utilization               0.0                       # Layer utilization (%)
system.membus.reqLayer1.occupancy          8995938997                       # Layer occupancy (ticks)
system.membus.reqLayer1.utilization               0.4                       # Layer utilization (%)
system.membus.reqLayer2.occupancy              316000                       # Layer occupancy (ticks)
system.membus.reqLayer2.utilization               0.0                       # Layer utilization (%)
system.membus.respLayer1.occupancy           46366287                       # Layer occupancy (ticks)
system.membus.respLayer1.utilization              0.0                       # Layer utilization (%)
system.membus.respLayer2.occupancy        13165466121                       # Layer occupancy (ticks)
system.membus.respLayer2.utilization              0.5                       # Layer utilization (%)
system.membus.respLayer3.occupancy        26772461590                       # Layer occupancy (ticks)
system.membus.respLayer3.utilization              1.1                       # Layer utilization (%)
system.iocache.tags.replacements                44450                       # number of replacements
system.iocache.tags.tagsinuse                0.258322                       # Cycle average of tags in use
system.iocache.tags.total_refs                      0                       # Total number of references to valid blocks.
system.iocache.tags.sampled_refs                44450                       # Sample count of references to valid blocks.
system.iocache.tags.avg_refs                        0                       # Average number of references to valid blocks.
system.iocache.tags.warmup_cycle         2428527610000                       # Cycle when the warmup percentage was hit.
system.iocache.tags.occ_blocks::tsunami.ide     0.258322                       # Average occupied blocks per requestor
system.iocache.tags.occ_percent::tsunami.ide     0.016145                       # Average percentage of cache occupancy
system.iocache.tags.occ_percent::total       0.016145                       # Average percentage of cache occupancy
system.iocache.tags.occ_task_id_blocks::1023           16                       # Occupied blocks per task id
system.iocache.tags.age_task_id_blocks_1023::3           16                       # Occupied blocks per task id
system.iocache.tags.occ_task_id_percent::1023            1                       # Percentage of cache occupancy per task id
system.iocache.tags.tag_accesses               400250                       # Number of tag accesses
system.iocache.tags.data_accesses              400250                       # Number of data accesses
system.iocache.WriteInvalidateReq_hits::tsunami.ide        44256                       # number of WriteInvalidateReq hits
system.iocache.WriteInvalidateReq_hits::total        44256                       # number of WriteInvalidateReq hits
system.iocache.ReadReq_misses::tsunami.ide          210                       # number of ReadReq misses
system.iocache.ReadReq_misses::total              210                       # number of ReadReq misses
system.iocache.WriteInvalidateReq_misses::tsunami.ide            7                       # number of WriteInvalidateReq misses
system.iocache.WriteInvalidateReq_misses::total            7                       # number of WriteInvalidateReq misses
system.iocache.demand_misses::tsunami.ide          210                       # number of demand (read+write) misses
system.iocache.demand_misses::total               210                       # number of demand (read+write) misses
system.iocache.overall_misses::tsunami.ide          210                       # number of overall misses
system.iocache.overall_misses::total              210                       # number of overall misses
system.iocache.ReadReq_miss_latency::tsunami.ide     30116854                       # number of ReadReq miss cycles
system.iocache.ReadReq_miss_latency::total     30116854                       # number of ReadReq miss cycles
system.iocache.demand_miss_latency::tsunami.ide     30116854                       # number of demand (read+write) miss cycles
system.iocache.demand_miss_latency::total     30116854                       # number of demand (read+write) miss cycles
system.iocache.overall_miss_latency::tsunami.ide     30116854                       # number of overall miss cycles
system.iocache.overall_miss_latency::total     30116854                       # number of overall miss cycles
system.iocache.ReadReq_accesses::tsunami.ide          210                       # number of ReadReq accesses(hits+misses)
system.iocache.ReadReq_accesses::total            210                       # number of ReadReq accesses(hits+misses)
system.iocache.WriteInvalidateReq_accesses::tsunami.ide        44263                       # number of WriteInvalidateReq accesses(hits+misses)
system.iocache.WriteInvalidateReq_accesses::total        44263                       # number of WriteInvalidateReq accesses(hits+misses)
system.iocache.demand_accesses::tsunami.ide          210                       # number of demand (read+write) accesses
system.iocache.demand_accesses::total             210                       # number of demand (read+write) accesses
system.iocache.overall_accesses::tsunami.ide          210                       # number of overall (read+write) accesses
system.iocache.overall_accesses::total            210                       # number of overall (read+write) accesses
system.iocache.ReadReq_miss_rate::tsunami.ide            1                       # miss rate for ReadReq accesses
system.iocache.ReadReq_miss_rate::total             1                       # miss rate for ReadReq accesses
system.iocache.WriteInvalidateReq_miss_rate::tsunami.ide     0.000158                       # miss rate for WriteInvalidateReq accesses
system.iocache.WriteInvalidateReq_miss_rate::total     0.000158                       # miss rate for WriteInvalidateReq accesses
system.iocache.demand_miss_rate::tsunami.ide            1                       # miss rate for demand accesses
system.iocache.demand_miss_rate::total              1                       # miss rate for demand accesses
system.iocache.overall_miss_rate::tsunami.ide            1                       # miss rate for overall accesses
system.iocache.overall_miss_rate::total             1                       # miss rate for overall accesses
system.iocache.ReadReq_avg_miss_latency::tsunami.ide 143413.590476                       # average ReadReq miss latency
system.iocache.ReadReq_avg_miss_latency::total 143413.590476                       # average ReadReq miss latency
system.iocache.demand_avg_miss_latency::tsunami.ide 143413.590476                       # average overall miss latency
system.iocache.demand_avg_miss_latency::total 143413.590476                       # average overall miss latency
system.iocache.overall_avg_miss_latency::tsunami.ide 143413.590476                       # average overall miss latency
system.iocache.overall_avg_miss_latency::total 143413.590476                       # average overall miss latency
system.iocache.blocked_cycles::no_mshrs           437                       # number of cycles access was blocked
system.iocache.blocked_cycles::no_targets            0                       # number of cycles access was blocked
system.iocache.blocked::no_mshrs                   45                       # number of cycles access was blocked
system.iocache.blocked::no_targets                  0                       # number of cycles access was blocked
system.iocache.avg_blocked_cycles::no_mshrs     9.711111                       # average number of cycles each access was blocked
system.iocache.avg_blocked_cycles::no_targets          nan                       # average number of cycles each access was blocked
system.iocache.fast_writes                      44256                       # number of fast writes performed
system.iocache.cache_copies                         0                       # number of cache copies performed
system.iocache.ReadReq_mshr_misses::tsunami.ide          210                       # number of ReadReq MSHR misses
system.iocache.ReadReq_mshr_misses::total          210                       # number of ReadReq MSHR misses
system.iocache.WriteInvalidateReq_mshr_misses::tsunami.ide        44256                       # number of WriteInvalidateReq MSHR misses
system.iocache.WriteInvalidateReq_mshr_misses::total        44256                       # number of WriteInvalidateReq MSHR misses
system.iocache.demand_mshr_misses::tsunami.ide          210                       # number of demand (read+write) MSHR misses
system.iocache.demand_mshr_misses::total          210                       # number of demand (read+write) MSHR misses
system.iocache.overall_mshr_misses::tsunami.ide          210                       # number of overall MSHR misses
system.iocache.overall_mshr_misses::total          210                       # number of overall MSHR misses
system.iocache.ReadReq_mshr_miss_latency::tsunami.ide     19195854                       # number of ReadReq MSHR miss cycles
system.iocache.ReadReq_mshr_miss_latency::total     19195854                       # number of ReadReq MSHR miss cycles
system.iocache.WriteInvalidateReq_mshr_miss_latency::tsunami.ide   3019537180                       # number of WriteInvalidateReq MSHR miss cycles
system.iocache.WriteInvalidateReq_mshr_miss_latency::total   3019537180                       # number of WriteInvalidateReq MSHR miss cycles
system.iocache.demand_mshr_miss_latency::tsunami.ide     19195854                       # number of demand (read+write) MSHR miss cycles
system.iocache.demand_mshr_miss_latency::total     19195854                       # number of demand (read+write) MSHR miss cycles
system.iocache.overall_mshr_miss_latency::tsunami.ide     19195854                       # number of overall MSHR miss cycles
system.iocache.overall_mshr_miss_latency::total     19195854                       # number of overall MSHR miss cycles
system.iocache.ReadReq_mshr_miss_rate::tsunami.ide            1                       # mshr miss rate for ReadReq accesses
system.iocache.ReadReq_mshr_miss_rate::total            1                       # mshr miss rate for ReadReq accesses
system.iocache.WriteInvalidateReq_mshr_miss_rate::tsunami.ide     0.999842                       # mshr miss rate for WriteInvalidateReq accesses
system.iocache.WriteInvalidateReq_mshr_miss_rate::total     0.999842                       # mshr miss rate for WriteInvalidateReq accesses
system.iocache.demand_mshr_miss_rate::tsunami.ide            1                       # mshr miss rate for demand accesses
system.iocache.demand_mshr_miss_rate::total            1                       # mshr miss rate for demand accesses
system.iocache.overall_mshr_miss_rate::tsunami.ide            1                       # mshr miss rate for overall accesses
system.iocache.overall_mshr_miss_rate::total            1                       # mshr miss rate for overall accesses
system.iocache.ReadReq_avg_mshr_miss_latency::tsunami.ide 91408.828571                       # average ReadReq mshr miss latency
system.iocache.ReadReq_avg_mshr_miss_latency::total 91408.828571                       # average ReadReq mshr miss latency
system.iocache.WriteInvalidateReq_avg_mshr_miss_latency::tsunami.ide 68228.876988                       # average WriteInvalidateReq mshr miss latency
system.iocache.WriteInvalidateReq_avg_mshr_miss_latency::total 68228.876988                       # average WriteInvalidateReq mshr miss latency
system.iocache.demand_avg_mshr_miss_latency::tsunami.ide 91408.828571                       # average overall mshr miss latency
system.iocache.demand_avg_mshr_miss_latency::total 91408.828571                       # average overall mshr miss latency
system.iocache.overall_avg_mshr_miss_latency::tsunami.ide 91408.828571                       # average overall mshr miss latency
system.iocache.overall_avg_mshr_miss_latency::total 91408.828571                       # average overall mshr miss latency
system.iocache.no_allocate_misses                   0                       # Number of misses that were no-allocate
system.disk0.dma_read_full_pages                    0                       # Number of full page size DMA reads (not PRD).
system.disk0.dma_read_bytes                      4096                       # Number of bytes transfered via DMA reads (not PRD).
system.disk0.dma_read_txs                           1                       # Number of DMA read transactions (not PRD).
system.disk0.dma_write_full_pages                 326                       # Number of full page size DMA writes.
system.disk0.dma_write_bytes                  2824192                       # Number of bytes transfered via DMA writes.
system.disk0.dma_write_txs                        365                       # Number of DMA write transactions.
system.disk2.dma_read_full_pages                    0                       # Number of full page size DMA reads (not PRD).
system.disk2.dma_read_bytes                         0                       # Number of bytes transfered via DMA reads (not PRD).
system.disk2.dma_read_txs                           0                       # Number of DMA read transactions (not PRD).
system.disk2.dma_write_full_pages                   1                       # Number of full page size DMA writes.
system.disk2.dma_write_bytes                     8192                       # Number of bytes transfered via DMA writes.
system.disk2.dma_write_txs                          1                       # Number of DMA write transactions.
system.cpu.branchPred.lookups                26953376                       # Number of BP lookups
system.cpu.branchPred.condPredicted          22827915                       # Number of conditional branches predicted
system.cpu.branchPred.condIncorrect            601662                       # Number of conditional branches incorrect
system.cpu.branchPred.BTBLookups             17916949                       # Number of BTB lookups
system.cpu.branchPred.BTBHits                10206557                       # Number of BTB hits
system.cpu.branchPred.BTBCorrect                    0                       # Number of correct BTB predictions (this stat may not work properly.
system.cpu.branchPred.BTBHitPct             56.965932                       # BTB Hit Percentage
system.cpu.branchPred.usedRAS                 1696180                       # Number of times the RAS was used to get a target.
system.cpu.branchPred.RASInCorrect              39597                       # Number of incorrect RAS predictions.
system.cpu_voltage_domain.voltage                   1                       # Voltage in Volts
system.cpu_clk_domain.clock                      1000                       # Clock period in ticks
system.cpu.dtb.fetch_hits                           0                       # ITB hits
system.cpu.dtb.fetch_misses                         0                       # ITB misses
system.cpu.dtb.fetch_acv                            0                       # ITB acv
system.cpu.dtb.fetch_accesses                       0                       # ITB accesses
system.cpu.dtb.read_hits                     17673954                       # DTB read hits
system.cpu.dtb.read_misses                      82072                       # DTB read misses
system.cpu.dtb.read_acv                           231                       # DTB read access violations
system.cpu.dtb.read_accesses                  1215537                       # DTB read accesses
system.cpu.dtb.write_hits                     8680724                       # DTB write hits
system.cpu.dtb.write_misses                     12944                       # DTB write misses
system.cpu.dtb.write_acv                          506                       # DTB write access violations
system.cpu.dtb.write_accesses                  420637                       # DTB write accesses
system.cpu.dtb.data_hits                     26354678                       # DTB hits
system.cpu.dtb.data_misses                      95016                       # DTB misses
system.cpu.dtb.data_acv                           737                       # DTB access violations
system.cpu.dtb.data_accesses                  1636174                       # DTB accesses
system.cpu.itb.fetch_hits                     2167693                       # ITB hits
system.cpu.itb.fetch_misses                     26324                       # ITB misses
system.cpu.itb.fetch_acv                          653                       # ITB acv
system.cpu.itb.fetch_accesses                 2194017                       # ITB accesses
system.cpu.itb.read_hits                            0                       # DTB read hits
system.cpu.itb.read_misses                          0                       # DTB read misses
system.cpu.itb.read_acv                             0                       # DTB read access violations
system.cpu.itb.read_accesses                        0                       # DTB read accesses
system.cpu.itb.write_hits                           0                       # DTB write hits
system.cpu.itb.write_misses                         0                       # DTB write misses
system.cpu.itb.write_acv                            0                       # DTB write access violations
system.cpu.itb.write_accesses                       0                       # DTB write accesses
system.cpu.itb.data_hits                            0                       # DTB hits
system.cpu.itb.data_misses                          0                       # DTB misses
system.cpu.itb.data_acv                             0                       # DTB access violations
system.cpu.itb.data_accesses                        0                       # DTB accesses
system.cpu.numCycles                        214478283                       # number of cpu cycles simulated
system.cpu.numWorkItemsStarted                      0                       # number of work items this cpu started
system.cpu.numWorkItemsCompleted                    0                       # number of work items this cpu completed
system.cpu.fetch.icacheStallCycles           50498512                       # Number of cycles fetch is stalled on an Icache miss
system.cpu.fetch.Insts                      119838088                       # Number of instructions fetch has processed
system.cpu.fetch.Branches                    26953376                       # Number of branches that fetch encountered
system.cpu.fetch.predictedBranches           11902737                       # Number of branches that fetch has predicted taken
system.cpu.fetch.Cycles                     127838587                       # Number of cycles fetch has run and was not squashing or blocked
system.cpu.fetch.SquashCycles                 1774022                       # Number of cycles fetch has spent squashing
system.cpu.fetch.TlbCycles                       1343                       # Number of cycles fetch has spent waiting for tlb
system.cpu.fetch.MiscStallCycles                51311                       # Number of cycles fetch has spent waiting on interrupts, or bad addresses, or out of MSHRs
system.cpu.fetch.PendingTrapStallCycles        989397                       # Number of stall cycles due to pending traps
system.cpu.fetch.PendingQuiesceStallCycles       423135                       # Number of stall cycles due to pending quiesce instructions
system.cpu.fetch.IcacheWaitRetryStallCycles          242                       # Number of stall cycles due to full MSHR
system.cpu.fetch.CacheLines                  15645344                       # Number of cache lines fetched
system.cpu.fetch.IcacheSquashes                427006                       # Number of outstanding Icache misses that were squashed
system.cpu.fetch.ItlbSquashes                      16                       # Number of outstanding ITLB misses that were squashed
system.cpu.fetch.rateDist::samples          180689564                       # Number of instructions fetched each cycle (Total)
system.cpu.fetch.rateDist::mean              0.663226                       # Number of instructions fetched each cycle (Total)
system.cpu.fetch.rateDist::stdev             1.912308                       # Number of instructions fetched each cycle (Total)
system.cpu.fetch.rateDist::underflows               0      0.00%      0.00% # Number of instructions fetched each cycle (Total)
system.cpu.fetch.rateDist::0                155804704     86.23%     86.23% # Number of instructions fetched each cycle (Total)
system.cpu.fetch.rateDist::1                  2842889      1.57%     87.80% # Number of instructions fetched each cycle (Total)
system.cpu.fetch.rateDist::2                  3525642      1.95%     89.75% # Number of instructions fetched each cycle (Total)
system.cpu.fetch.rateDist::3                  2030650      1.12%     90.88% # Number of instructions fetched each cycle (Total)
system.cpu.fetch.rateDist::4                  4957783      2.74%     93.62% # Number of instructions fetched each cycle (Total)
system.cpu.fetch.rateDist::5                  1201578      0.66%     94.29% # Number of instructions fetched each cycle (Total)
system.cpu.fetch.rateDist::6                  1870870      1.04%     95.32% # Number of instructions fetched each cycle (Total)
system.cpu.fetch.rateDist::7                   855861      0.47%     95.79% # Number of instructions fetched each cycle (Total)
system.cpu.fetch.rateDist::8                  7599587      4.21%    100.00% # Number of instructions fetched each cycle (Total)
system.cpu.fetch.rateDist::overflows                0      0.00%    100.00% # Number of instructions fetched each cycle (Total)
system.cpu.fetch.rateDist::min_value                0                       # Number of instructions fetched each cycle (Total)
system.cpu.fetch.rateDist::max_value                8                       # Number of instructions fetched each cycle (Total)
system.cpu.fetch.rateDist::total            180689564                       # Number of instructions fetched each cycle (Total)
system.cpu.fetch.branchRate                  0.125669                       # Number of branch fetches per cycle
system.cpu.fetch.rate                        0.558742                       # Number of inst fetches per cycle
system.cpu.decode.IdleCycles                 39698859                       # Number of cycles decode is idle
system.cpu.decode.BlockedCycles             121847455                       # Number of cycles decode is blocked
system.cpu.decode.RunCycles                  14395026                       # Number of cycles decode is running
system.cpu.decode.UnblockCycles               3936777                       # Number of cycles decode is unblocking
system.cpu.decode.SquashCycles                 811446                       # Number of cycles decode is squashing
system.cpu.decode.BranchResolved               915573                       # Number of times decode resolved a branch
system.cpu.decode.BranchMispred                 76073                       # Number of times decode detected a branch misprediction
system.cpu.decode.DecodedInsts              107269809                       # Number of instructions handled by decode
system.cpu.decode.SquashedInsts                209331                       # Number of squashed instructions handled by decode
system.cpu.rename.SquashCycles                 811446                       # Number of cycles rename is squashing
system.cpu.rename.IdleCycles                 41378648                       # Number of cycles rename is idle
system.cpu.rename.BlockCycles                78188044                       # Number of cycles rename is blocking
system.cpu.rename.serializeStallCycles       29789160                       # count of cycles rename stalled for serializing inst
system.cpu.rename.RunCycles                  16378765                       # Number of cycles rename is running
system.cpu.rename.UnblockCycles              14143499                       # Number of cycles rename is unblocking
system.cpu.rename.RenamedInsts              104107244                       # Number of instructions processed by rename
system.cpu.rename.ROBFullEvents                238569                       # Number of times rename has blocked due to ROB full
system.cpu.rename.IQFullEvents                7862918                       # Number of times rename has blocked due to IQ full
system.cpu.rename.LQFullEvents                1272602                       # Number of times rename has blocked due to LQ full
system.cpu.rename.SQFullEvents                2614144                       # Number of times rename has blocked due to SQ full
system.cpu.rename.RenamedOperands            75045216                       # Number of destination operands rename has renamed
system.cpu.rename.RenameLookups             133744531                       # Number of register rename lookups that rename has made
system.cpu.rename.int_rename_lookups        133544900                       # Number of integer rename lookups
system.cpu.rename.fp_rename_lookups            185445                       # Number of floating rename lookups
system.cpu.rename.CommittedMaps              65973296                       # Number of HB maps that are committed
system.cpu.rename.UndoneMaps                  9071912                       # Number of HB maps that are undone due to squashing
system.cpu.rename.serializingInsts            1963001                       # count of serializing insts renamed
system.cpu.rename.tempSerializingInsts         313092                       # count of temporary serializing insts renamed
system.cpu.rename.skidInsts                  26234228                       # count of insts added to the skid buffer
system.cpu.memDep0.insertedLoads             18082956                       # Number of loads inserted to the mem dependence unit.
system.cpu.memDep0.insertedStores             9089707                       # Number of stores inserted to the mem dependence unit.
system.cpu.memDep0.conflictingLoads           2306827                       # Number of conflicting loads.
system.cpu.memDep0.conflictingStores          1578360                       # Number of conflicting stores.
system.cpu.iq.iqInstsAdded                   97661707                       # Number of instructions added to the IQ (excludes non-spec)
system.cpu.iq.iqNonSpecInstsAdded             2668518                       # Number of non-speculative instructions added to the IQ
system.cpu.iq.iqInstsIssued                  95563692                       # Number of instructions issued
system.cpu.iq.iqSquashedInstsIssued             80310                       # Number of squashed instructions issued
system.cpu.iq.iqSquashedInstsExamined        11355278                       # Number of squashed instructions iterated over during squash; mainly for profiling
system.cpu.iq.iqSquashedOperandsExamined      5671094                       # Number of squashed operands that are examined and possibly removed from graph
system.cpu.iq.iqSquashedNonSpecRemoved        1687844                       # Number of squashed non-spec instructions that were removed
system.cpu.iq.issued_per_cycle::samples     180689564                       # Number of insts issued each cycle
system.cpu.iq.issued_per_cycle::mean         0.528883                       # Number of insts issued each cycle
system.cpu.iq.issued_per_cycle::stdev        1.239061                       # Number of insts issued each cycle
system.cpu.iq.issued_per_cycle::underflows            0      0.00%      0.00% # Number of insts issued each cycle
system.cpu.iq.issued_per_cycle::0           138814632     76.82%     76.82% # Number of insts issued each cycle
system.cpu.iq.issued_per_cycle::1            19863653     10.99%     87.82% # Number of insts issued each cycle
system.cpu.iq.issued_per_cycle::2             7702288      4.26%     92.08% # Number of insts issued each cycle
system.cpu.iq.issued_per_cycle::3             5095305      2.82%     94.90% # Number of insts issued each cycle
system.cpu.iq.issued_per_cycle::4             4673907      2.59%     97.49% # Number of insts issued each cycle
system.cpu.iq.issued_per_cycle::5             2264747      1.25%     98.74% # Number of insts issued each cycle
system.cpu.iq.issued_per_cycle::6             1283500      0.71%     99.45% # Number of insts issued each cycle
system.cpu.iq.issued_per_cycle::7              643071      0.36%     99.81% # Number of insts issued each cycle
system.cpu.iq.issued_per_cycle::8              348461      0.19%    100.00% # Number of insts issued each cycle
system.cpu.iq.issued_per_cycle::overflows            0      0.00%    100.00% # Number of insts issued each cycle
system.cpu.iq.issued_per_cycle::min_value            0                       # Number of insts issued each cycle
system.cpu.iq.issued_per_cycle::max_value            8                       # Number of insts issued each cycle
system.cpu.iq.issued_per_cycle::total       180689564                       # Number of insts issued each cycle
system.cpu.iq.fu_full::No_OpClass                   0      0.00%      0.00% # attempts to use FU when none available
system.cpu.iq.fu_full::IntAlu                  386462     22.93%     22.93% # attempts to use FU when none available
system.cpu.iq.fu_full::IntMult                      1      0.00%     22.93% # attempts to use FU when none available
system.cpu.iq.fu_full::IntDiv                       0      0.00%     22.93% # attempts to use FU when none available
system.cpu.iq.fu_full::FloatAdd                     0      0.00%     22.93% # attempts to use FU when none available
system.cpu.iq.fu_full::FloatCmp                     0      0.00%     22.93% # attempts to use FU when none available
system.cpu.iq.fu_full::FloatCvt                     0      0.00%     22.93% # attempts to use FU when none available
system.cpu.iq.fu_full::FloatMult                    0      0.00%     22.93% # attempts to use FU when none available
system.cpu.iq.fu_full::FloatDiv                     0      0.00%     22.93% # attempts to use FU when none available
system.cpu.iq.fu_full::FloatSqrt                    0      0.00%     22.93% # attempts to use FU when none available
system.cpu.iq.fu_full::SimdAdd                      0      0.00%     22.93% # attempts to use FU when none available
system.cpu.iq.fu_full::SimdAddAcc                   0      0.00%     22.93% # attempts to use FU when none available
system.cpu.iq.fu_full::SimdAlu                      0      0.00%     22.93% # attempts to use FU when none available
system.cpu.iq.fu_full::SimdCmp                      0      0.00%     22.93% # attempts to use FU when none available
system.cpu.iq.fu_full::SimdCvt                      0      0.00%     22.93% # attempts to use FU when none available
system.cpu.iq.fu_full::SimdMisc                     0      0.00%     22.93% # attempts to use FU when none available
system.cpu.iq.fu_full::SimdMult                     0      0.00%     22.93% # attempts to use FU when none available
system.cpu.iq.fu_full::SimdMultAcc                  0      0.00%     22.93% # attempts to use FU when none available
system.cpu.iq.fu_full::SimdShift                    0      0.00%     22.93% # attempts to use FU when none available
system.cpu.iq.fu_full::SimdShiftAcc                 0      0.00%     22.93% # attempts to use FU when none available
system.cpu.iq.fu_full::SimdSqrt                     0      0.00%     22.93% # attempts to use FU when none available
system.cpu.iq.fu_full::SimdFloatAdd                 0      0.00%     22.93% # attempts to use FU when none available
system.cpu.iq.fu_full::SimdFloatAlu                 0      0.00%     22.93% # attempts to use FU when none available
system.cpu.iq.fu_full::SimdFloatCmp                 0      0.00%     22.93% # attempts to use FU when none available
system.cpu.iq.fu_full::SimdFloatCvt                 0      0.00%     22.93% # attempts to use FU when none available
system.cpu.iq.fu_full::SimdFloatDiv                 0      0.00%     22.93% # attempts to use FU when none available
system.cpu.iq.fu_full::SimdFloatMisc                0      0.00%     22.93% # attempts to use FU when none available
system.cpu.iq.fu_full::SimdFloatMult                0      0.00%     22.93% # attempts to use FU when none available
system.cpu.iq.fu_full::SimdFloatMultAcc             0      0.00%     22.93% # attempts to use FU when none available
system.cpu.iq.fu_full::SimdFloatSqrt                0      0.00%     22.93% # attempts to use FU when none available
system.cpu.iq.fu_full::MemRead                 786989     46.70%     69.63% # attempts to use FU when none available
system.cpu.iq.fu_full::MemWrite                511731     30.37%    100.00% # attempts to use FU when none available
system.cpu.iq.fu_full::IprAccess                    0      0.00%    100.00% # attempts to use FU when none available
system.cpu.iq.fu_full::InstPrefetch                 0      0.00%    100.00% # attempts to use FU when none available
system.cpu.iq.FU_type_0::No_OpClass              8373      0.01%      0.01% # Type of FU issued
system.cpu.iq.FU_type_0::IntAlu              67027449     70.14%     70.15% # Type of FU issued
system.cpu.iq.FU_type_0::IntMult               159285      0.17%     70.31% # Type of FU issued
system.cpu.iq.FU_type_0::IntDiv                     0      0.00%     70.31% # Type of FU issued
system.cpu.iq.FU_type_0::FloatAdd               86096      0.09%     70.40% # Type of FU issued
system.cpu.iq.FU_type_0::FloatCmp                   0      0.00%     70.40% # Type of FU issued
system.cpu.iq.FU_type_0::FloatCvt                   0      0.00%     70.40% # Type of FU issued
system.cpu.iq.FU_type_0::FloatMult                  0      0.00%     70.40% # Type of FU issued
system.cpu.iq.FU_type_0::FloatDiv                4185      0.00%     70.41% # Type of FU issued
system.cpu.iq.FU_type_0::FloatSqrt                  0      0.00%     70.41% # Type of FU issued
system.cpu.iq.FU_type_0::SimdAdd                    0      0.00%     70.41% # Type of FU issued
system.cpu.iq.FU_type_0::SimdAddAcc                 0      0.00%     70.41% # Type of FU issued
system.cpu.iq.FU_type_0::SimdAlu                    0      0.00%     70.41% # Type of FU issued
system.cpu.iq.FU_type_0::SimdCmp                    0      0.00%     70.41% # Type of FU issued
system.cpu.iq.FU_type_0::SimdCvt                    0      0.00%     70.41% # Type of FU issued
system.cpu.iq.FU_type_0::SimdMisc                   0      0.00%     70.41% # Type of FU issued
system.cpu.iq.FU_type_0::SimdMult                   0      0.00%     70.41% # Type of FU issued
system.cpu.iq.FU_type_0::SimdMultAcc                0      0.00%     70.41% # Type of FU issued
system.cpu.iq.FU_type_0::SimdShift                  0      0.00%     70.41% # Type of FU issued
system.cpu.iq.FU_type_0::SimdShiftAcc               0      0.00%     70.41% # Type of FU issued
system.cpu.iq.FU_type_0::SimdSqrt                   0      0.00%     70.41% # Type of FU issued
system.cpu.iq.FU_type_0::SimdFloatAdd               0      0.00%     70.41% # Type of FU issued
system.cpu.iq.FU_type_0::SimdFloatAlu               0      0.00%     70.41% # Type of FU issued
system.cpu.iq.FU_type_0::SimdFloatCmp               0      0.00%     70.41% # Type of FU issued
system.cpu.iq.FU_type_0::SimdFloatCvt               0      0.00%     70.41% # Type of FU issued
system.cpu.iq.FU_type_0::SimdFloatDiv               0      0.00%     70.41% # Type of FU issued
system.cpu.iq.FU_type_0::SimdFloatMisc              0      0.00%     70.41% # Type of FU issued
system.cpu.iq.FU_type_0::SimdFloatMult              0      0.00%     70.41% # Type of FU issued
system.cpu.iq.FU_type_0::SimdFloatMultAcc            0      0.00%     70.41% # Type of FU issued
system.cpu.iq.FU_type_0::SimdFloatSqrt              0      0.00%     70.41% # Type of FU issued
system.cpu.iq.FU_type_0::MemRead             18345961     19.20%     89.61% # Type of FU issued
system.cpu.iq.FU_type_0::MemWrite             8855359      9.27%     98.87% # Type of FU issued
system.cpu.iq.FU_type_0::IprAccess            1076984      1.13%    100.00% # Type of FU issued
system.cpu.iq.FU_type_0::InstPrefetch               0      0.00%    100.00% # Type of FU issued
system.cpu.iq.FU_type_0::total               95563692                       # Type of FU issued
system.cpu.iq.rate                           0.445563                       # Inst issue rate
system.cpu.iq.fu_busy_cnt                     1685183                       # FU busy when requested
system.cpu.iq.fu_busy_rate                   0.017634                       # FU busy rate (busy events/executed inst)
system.cpu.iq.int_inst_queue_reads          372716002                       # Number of integer instruction queue reads
system.cpu.iq.int_inst_queue_writes         111305878                       # Number of integer instruction queue writes
system.cpu.iq.int_inst_queue_wakeup_accesses     93381611                       # Number of integer instruction queue wakeup accesses
system.cpu.iq.fp_inst_queue_reads              866438                       # Number of floating instruction queue reads
system.cpu.iq.fp_inst_queue_writes             413026                       # Number of floating instruction queue writes
system.cpu.iq.fp_inst_queue_wakeup_accesses       403470                       # Number of floating instruction queue wakeup accesses
system.cpu.iq.int_alu_accesses               96778741                       # Number of integer alu accesses
system.cpu.iq.fp_alu_accesses                  461761                       # Number of floating point alu accesses
system.cpu.iew.lsq.thread0.forwLoads           834530                       # Number of loads that had data forwarded from stores
system.cpu.iew.lsq.thread0.invAddrLoads             0                       # Number of loads ignored due to an invalid address
system.cpu.iew.lsq.thread0.squashedLoads      2193232                       # Number of loads squashed
system.cpu.iew.lsq.thread0.ignoredResponses         3222                       # Number of memory responses ignored because the instruction is squashed
system.cpu.iew.lsq.thread0.memOrderViolation        34041                       # Number of memory ordering violations
system.cpu.iew.lsq.thread0.squashedStores       860759                       # Number of stores squashed
system.cpu.iew.lsq.thread0.invAddrSwpfs             0                       # Number of software prefetches ignored due to an invalid address
system.cpu.iew.lsq.thread0.blockedLoads             0                       # Number of blocked loads due to partial load-store forwarding
[...]
system.cpu.dcache.overall_misses::cpu.data        96935                       # number of overall misses
system.cpu.dcache.overall_misses::total         96935                       # number of overall misses
system.cpu.dcache.ReadReq_miss_latency::cpu.data   1653405998                       # number of ReadReq miss cycles
system.cpu.dcache.ReadReq_miss_latency::total   1653405998                       # number of ReadReq miss cycles
system.cpu.dcache.WriteReq_miss_latency::cpu.data   4581082750                       # number of WriteReq miss cycles
system.cpu.dcache.WriteReq_miss_latency::total   4581082750                       # number of WriteReq miss cycles
system.cpu.dcache.LoadLockedReq_miss_latency::cpu.data     26171000                       # number of LoadLockedReq miss cycles
system.cpu.dcache.LoadLockedReq_miss_latency::total     26171000                       # number of LoadLockedReq miss cycles
system.cpu.dcache.demand_miss_latency::cpu.data   6234488748                       # number of demand (read+write) miss cycles
system.cpu.dcache.demand_miss_latency::total   6234488748                       # number of demand (read+write) miss cycles
system.cpu.dcache.overall_miss_latency::cpu.data   6234488748                       # number of overall miss cycles
system.cpu.dcache.overall_miss_latency::total   6234488748                       # number of overall miss cycles
system.cpu.dcache.ReadReq_accesses::cpu.data       155983                       # number of ReadReq accesses(hits+misses)
system.cpu.dcache.ReadReq_accesses::total       155983                       # number of ReadReq accesses(hits+misses)
system.cpu.dcache.WriteReq_accesses::cpu.data       129687                       # number of WriteReq accesses(hits+misses)
system.cpu.dcache.WriteReq_accesses::total       129687                       # number of WriteReq accesses(hits+misses)
system.cpu.dcache.LoadLockedReq_accesses::cpu.data         2699                       # number of LoadLockedReq accesses(hits+misses)
system.cpu.dcache.LoadLockedReq_accesses::total         2699                       # number of LoadLockedReq accesses(hits+misses)
system.cpu.dcache.StoreCondReq_accesses::cpu.data         2451                       # number of StoreCondReq accesses(hits+misses)
system.cpu.dcache.StoreCondReq_accesses::total         2451                       # number of StoreCondReq accesses(hits+misses)
system.cpu.dcache.demand_accesses::cpu.data       285670                       # number of demand (read+write) accesses
system.cpu.dcache.demand_accesses::total       285670                       # number of demand (read+write) accesses
system.cpu.dcache.overall_accesses::cpu.data       285670                       # number of overall (read+write) accesses
system.cpu.dcache.overall_accesses::total       285670                       # number of overall (read+write) accesses
system.cpu.dcache.ReadReq_miss_rate::cpu.data     0.178737                       # miss rate for ReadReq accesses
system.cpu.dcache.ReadReq_miss_rate::total     0.178737                       # miss rate for ReadReq accesses
system.cpu.dcache.WriteReq_miss_rate::cpu.data     0.532474                       # miss rate for WriteReq accesses
system.cpu.dcache.WriteReq_miss_rate::total     0.532474                       # miss rate for WriteReq accesses
system.cpu.dcache.LoadLockedReq_miss_rate::cpu.data     0.142275                       # miss rate for LoadLockedReq accesses
system.cpu.dcache.LoadLockedReq_miss_rate::total     0.142275                       # miss rate for LoadLockedReq accesses
system.cpu.dcache.demand_miss_rate::cpu.data     0.339325                       # miss rate for demand accesses
system.cpu.dcache.demand_miss_rate::total     0.339325                       # miss rate for demand accesses
system.cpu.dcache.overall_miss_rate::cpu.data     0.339325                       # miss rate for overall accesses
system.cpu.dcache.overall_miss_rate::total     0.339325                       # miss rate for overall accesses
system.cpu.dcache.ReadReq_avg_miss_latency::cpu.data 59304.375825                       # average ReadReq miss latency
system.cpu.dcache.ReadReq_avg_miss_latency::total 59304.375825                       # average ReadReq miss latency
system.cpu.dcache.WriteReq_avg_miss_latency::cpu.data 66339.624213                       # average WriteReq miss latency
system.cpu.dcache.WriteReq_avg_miss_latency::total 66339.624213                       # average WriteReq miss latency
system.cpu.dcache.LoadLockedReq_avg_miss_latency::cpu.data 68153.645833                       # average LoadLockedReq miss latency
system.cpu.dcache.LoadLockedReq_avg_miss_latency::total 68153.645833                       # average LoadLockedReq miss latency
system.cpu.dcache.demand_avg_miss_latency::cpu.data 64316.178346                       # average overall miss latency
system.cpu.dcache.demand_avg_miss_latency::total 64316.178346                       # average overall miss latency
system.cpu.dcache.overall_avg_miss_latency::cpu.data 64316.178346                       # average overall miss latency
system.cpu.dcache.overall_avg_miss_latency::total 64316.178346                       # average overall miss latency
system.cpu.dcache.blocked_cycles::no_mshrs       118133                       # number of cycles access was blocked
system.cpu.dcache.blocked_cycles::no_targets            0                       # number of cycles access was blocked
system.cpu.dcache.blocked::no_mshrs              6463                       # number of cycles access was blocked
system.cpu.dcache.blocked::no_targets               0                       # number of cycles access was blocked
system.cpu.dcache.avg_blocked_cycles::no_mshrs    18.278354                       # average number of cycles each access was blocked
system.cpu.dcache.avg_blocked_cycles::no_targets          nan                       # average number of cycles each access was blocked
system.cpu.dcache.fast_writes                       0                       # number of fast writes performed
system.cpu.dcache.cache_copies                      0                       # number of cache copies performed
system.cpu.dcache.writebacks::writebacks        10459                       # number of writebacks
system.cpu.dcache.writebacks::total             10459                       # number of writebacks
system.cpu.dcache.ReadReq_mshr_hits::cpu.data        19802                       # number of ReadReq MSHR hits
system.cpu.dcache.ReadReq_mshr_hits::total        19802                       # number of ReadReq MSHR hits
system.cpu.dcache.WriteReq_mshr_hits::cpu.data        59969                       # number of WriteReq MSHR hits
system.cpu.dcache.WriteReq_mshr_hits::total        59969                       # number of WriteReq MSHR hits
system.cpu.dcache.LoadLockedReq_mshr_hits::cpu.data          186                       # number of LoadLockedReq MSHR hits
system.cpu.dcache.LoadLockedReq_mshr_hits::total          186                       # number of LoadLockedReq MSHR hits
system.cpu.dcache.demand_mshr_hits::cpu.data        79771                       # number of demand (read+write) MSHR hits
system.cpu.dcache.demand_mshr_hits::total        79771                       # number of demand (read+write) MSHR hits
system.cpu.dcache.overall_mshr_hits::cpu.data        79771                       # number of overall MSHR hits
system.cpu.dcache.overall_mshr_hits::total        79771                       # number of overall MSHR hits
system.cpu.dcache.ReadReq_mshr_misses::cpu.data         8078                       # number of ReadReq MSHR misses
system.cpu.dcache.ReadReq_mshr_misses::total         8078                       # number of ReadReq MSHR misses
system.cpu.dcache.WriteReq_mshr_misses::cpu.data         9086                       # number of WriteReq MSHR misses
system.cpu.dcache.WriteReq_mshr_misses::total         9086                       # number of WriteReq MSHR misses
system.cpu.dcache.LoadLockedReq_mshr_misses::cpu.data          198                       # number of LoadLockedReq MSHR misses
system.cpu.dcache.LoadLockedReq_mshr_misses::total          198                       # number of LoadLockedReq MSHR misses
system.cpu.dcache.demand_mshr_misses::cpu.data        17164                       # number of demand (read+write) MSHR misses
system.cpu.dcache.demand_mshr_misses::total        17164                       # number of demand (read+write) MSHR misses
system.cpu.dcache.overall_mshr_misses::cpu.data        17164                       # number of overall MSHR misses
system.cpu.dcache.overall_mshr_misses::total        17164                       # number of overall MSHR misses
system.cpu.dcache.ReadReq_mshr_miss_latency::cpu.data    493943251                       # number of ReadReq MSHR miss cycles
system.cpu.dcache.ReadReq_mshr_miss_latency::total    493943251                       # number of ReadReq MSHR miss cycles
system.cpu.dcache.WriteReq_mshr_miss_latency::cpu.data    617572880                       # number of WriteReq MSHR miss cycles
system.cpu.dcache.WriteReq_mshr_miss_latency::total    617572880                       # number of WriteReq MSHR miss cycles
system.cpu.dcache.LoadLockedReq_mshr_miss_latency::cpu.data     13199500                       # number of LoadLockedReq MSHR miss cycles
system.cpu.dcache.LoadLockedReq_mshr_miss_latency::total     13199500                       # number of LoadLockedReq MSHR miss cycles
system.cpu.dcache.demand_mshr_miss_latency::cpu.data   1111516131                       # number of demand (read+write) MSHR miss cycles
system.cpu.dcache.demand_mshr_miss_latency::total   1111516131                       # number of demand (read+write) MSHR miss cycles
system.cpu.dcache.overall_mshr_miss_latency::cpu.data   1111516131                       # number of overall MSHR miss cycles
system.cpu.dcache.overall_mshr_miss_latency::total   1111516131                       # number of overall MSHR miss cycles
system.cpu.dcache.WriteReq_mshr_uncacheable_latency::cpu.data       202000                       # number of WriteReq MSHR uncacheable cycles
system.cpu.dcache.WriteReq_mshr_uncacheable_latency::total       202000                       # number of WriteReq MSHR uncacheable cycles
system.cpu.dcache.overall_mshr_uncacheable_latency::cpu.data       202000                       # number of overall MSHR uncacheable cycles
system.cpu.dcache.overall_mshr_uncacheable_latency::total       202000                       # number of overall MSHR uncacheable cycles
system.cpu.dcache.ReadReq_mshr_miss_rate::cpu.data     0.051788                       # mshr miss rate for ReadReq accesses
system.cpu.dcache.ReadReq_mshr_miss_rate::total     0.051788                       # mshr miss rate for ReadReq accesses
system.cpu.dcache.WriteReq_mshr_miss_rate::cpu.data     0.070061                       # mshr miss rate for WriteReq accesses
system.cpu.dcache.WriteReq_mshr_miss_rate::total     0.070061                       # mshr miss rate for WriteReq accesses
system.cpu.dcache.LoadLockedReq_mshr_miss_rate::cpu.data     0.073361                       # mshr miss rate for LoadLockedReq accesses
system.cpu.dcache.LoadLockedReq_mshr_miss_rate::total     0.073361                       # mshr miss rate for LoadLockedReq accesses
system.cpu.dcache.demand_mshr_miss_rate::cpu.data     0.060083                       # mshr miss rate for demand accesses
system.cpu.dcache.demand_mshr_miss_rate::total     0.060083                       # mshr miss rate for demand accesses
system.cpu.dcache.overall_mshr_miss_rate::cpu.data     0.060083                       # mshr miss rate for overall accesses
system.cpu.dcache.overall_mshr_miss_rate::total     0.060083                       # mshr miss rate for overall accesses
system.cpu.dcache.ReadReq_avg_mshr_miss_latency::cpu.data 61146.725798                       # average ReadReq mshr miss latency
system.cpu.dcache.ReadReq_avg_mshr_miss_latency::total 61146.725798                       # average ReadReq mshr miss latency
system.cpu.dcache.WriteReq_avg_mshr_miss_latency::cpu.data 67969.720449                       # average WriteReq mshr miss latency
system.cpu.dcache.WriteReq_avg_mshr_miss_latency::total 67969.720449                       # average WriteReq mshr miss latency
system.cpu.dcache.LoadLockedReq_avg_mshr_miss_latency::cpu.data 66664.141414                       # average LoadLockedReq mshr miss latency
system.cpu.dcache.LoadLockedReq_avg_mshr_miss_latency::total 66664.141414                       # average LoadLockedReq mshr miss latency
system.cpu.dcache.demand_avg_mshr_miss_latency::cpu.data 64758.572069                       # average overall mshr miss latency
system.cpu.dcache.demand_avg_mshr_miss_latency::total 64758.572069                       # average overall mshr miss latency
system.cpu.dcache.overall_avg_mshr_miss_latency::cpu.data 64758.572069                       # average overall mshr miss latency
system.cpu.dcache.overall_avg_mshr_miss_latency::total 64758.572069                       # average overall mshr miss latency
system.cpu.dcache.WriteReq_avg_mshr_uncacheable_latency::cpu.data          inf                       # average WriteReq mshr uncacheable latency
system.cpu.dcache.WriteReq_avg_mshr_uncacheable_latency::total          inf                       # average WriteReq mshr uncacheable latency
system.cpu.dcache.overall_avg_mshr_uncacheable_latency::cpu.data          inf                       # average overall mshr uncacheable latency
system.cpu.dcache.overall_avg_mshr_uncacheable_latency::total          inf                       # average overall mshr uncacheable latency
system.cpu.dcache.no_allocate_misses                0                       # Number of misses that were no-allocate
system.cpu.kern.inst.arm                            0                       # number of arm instructions executed
system.cpu.kern.inst.quiesce                        0                       # number of quiesce instructions executed
system.cpu.kern.inst.hwrei                       2634                       # number of hwrei instructions executed
system.cpu.kern.ipl_count::0                      540     49.00%     49.00% # number of times we switched to this ipl
system.cpu.kern.ipl_count::22                       1      0.09%     49.09% # number of times we switched to this ipl
system.cpu.kern.ipl_count::31                     561     50.91%    100.00% # number of times we switched to this ipl
system.cpu.kern.ipl_count::total                 1102                       # number of times we switched to this ipl
system.cpu.kern.ipl_good::0                       538     49.95%     49.95% # number of times we switched to this ipl from a different ipl
system.cpu.kern.ipl_good::22                        1      0.09%     50.05% # number of times we switched to this ipl from a different ipl
system.cpu.kern.ipl_good::31                      538     49.95%    100.00% # number of times we switched to this ipl from a different ipl
system.cpu.kern.ipl_good::total                  1077                       # number of times we switched to this ipl from a different ipl
system.cpu.kern.ipl_ticks::0               1251082000     90.93%     90.93% # number of cycles we spent at this ipl
system.cpu.kern.ipl_ticks::22                  950000      0.07%     91.00% # number of cycles we spent at this ipl
system.cpu.kern.ipl_ticks::31               123896000      9.00%    100.00% # number of cycles we spent at this ipl
system.cpu.kern.ipl_ticks::total           1375928000                       # number of cycles we spent at this ipl
system.cpu.kern.ipl_used::0                  0.996296                       # fraction of swpipl calls that actually changed the ipl
system.cpu.kern.ipl_used::22                        1                       # fraction of swpipl calls that actually changed the ipl
system.cpu.kern.ipl_used::31                 0.959002                       # fraction of swpipl calls that actually changed the ipl
system.cpu.kern.ipl_used::total              0.977314                       # fraction of swpipl calls that actually changed the ipl
system.cpu.kern.syscall::2                          1      5.88%      5.88% # number of syscalls executed
system.cpu.kern.syscall::3                          2     11.76%     17.65% # number of syscalls executed
system.cpu.kern.syscall::6                          2     11.76%     29.41% # number of syscalls executed
system.cpu.kern.syscall::17                         1      5.88%     35.29% # number of syscalls executed
system.cpu.kern.syscall::33                         1      5.88%     41.18% # number of syscalls executed
system.cpu.kern.syscall::45                         3     17.65%     58.82% # number of syscalls executed
system.cpu.kern.syscall::48                         1      5.88%     64.71% # number of syscalls executed
system.cpu.kern.syscall::59                         1      5.88%     70.59% # number of syscalls executed
system.cpu.kern.syscall::71                         4     23.53%     94.12% # number of syscalls executed
system.cpu.kern.syscall::74                         1      5.88%    100.00% # number of syscalls executed
system.cpu.kern.syscall::total                     17                       # number of syscalls executed
system.cpu.kern.callpal::swpctx                   121      9.52%      9.52% # number of callpals executed
system.cpu.kern.callpal::tbi                        6      0.47%      9.99% # number of callpals executed
system.cpu.kern.callpal::swpipl                   913     71.83%     81.83% # number of callpals executed
system.cpu.kern.callpal::rdps                       3      0.24%     82.06% # number of callpals executed
system.cpu.kern.callpal::wrusp                      1      0.08%     82.14% # number of callpals executed
system.cpu.kern.callpal::rdusp                      1      0.08%     82.22% # number of callpals executed
system.cpu.kern.callpal::rti                      188     14.79%     97.01% # number of callpals executed
system.cpu.kern.callpal::callsys                   34      2.68%     99.69% # number of callpals executed
system.cpu.kern.callpal::imb                        4      0.31%    100.00% # number of callpals executed
system.cpu.kern.callpal::total                   1271                       # number of callpals executed
system.cpu.kern.mode_switch::kernel               309                       # number of protection mode switches
system.cpu.kern.mode_switch::user                 185                       # number of protection mode switches
system.cpu.kern.mode_switch::idle                   0                       # number of protection mode switches
system.cpu.kern.mode_good::kernel                 185                      
system.cpu.kern.mode_good::user                   185                      
system.cpu.kern.mode_good::idle                     0                      
system.cpu.kern.mode_switch_good::kernel     0.598706                       # fraction of useful protection mode switches
system.cpu.kern.mode_switch_good::user              1                       # fraction of useful protection mode switches
system.cpu.kern.mode_switch_good::idle            nan                       # fraction of useful protection mode switches
system.cpu.kern.mode_switch_good::total      0.748988                       # fraction of useful protection mode switches
system.cpu.kern.mode_ticks::kernel          947475000     68.86%     68.86% # number of ticks spent at the given mode
system.cpu.kern.mode_ticks::user            428453000     31.14%    100.00% # number of ticks spent at the given mode
system.cpu.kern.mode_ticks::idle                    0      0.00%    100.00% # number of ticks spent at the given mode
system.cpu.kern.swap_context                      121                       # number of times the context was actually changed

---------- End Simulation Statistics   ----------
