
---------- Begin Simulation Statistics ----------
sim_seconds                                  2.457157                       # Number of seconds simulated
sim_ticks                                2457156525500                       # Number of ticks simulated
final_tick                               2457156525500                       # Number of ticks from beginning of simulation (restored from checkpoints and never reset)
sim_freq                                 1000000000000                       # Frequency of simulated ticks
host_inst_rate                                 169802                       # Simulator instruction rate (inst/s)
host_op_rate                                   169802                       # Simulator op (including micro ops) rate (op/s)
host_tick_rate                             3833372803                       # Simulator tick rate (ticks/s)
host_mem_usage                                 471276                       # Number of bytes of host memory used
host_seconds                                   640.99                       # Real time elapsed on the host
sim_insts                                   108841766                       # Number of instructions simulated
sim_ops                                     108841766                       # Number of ops (including micro ops) simulated
system.voltage_domain.voltage                       1                       # Voltage in Volts
system.clk_domain.clock                          1000                       # Clock period in ticks
system.mem_ctrls.bytes_read::cpu0.inst       44396032                       # Number of bytes read from this memory
system.mem_ctrls.bytes_read::cpu0.data      155823168                       # Number of bytes read from this memory
system.mem_ctrls.bytes_read::tsunami.ide        13440                       # Number of bytes read from this memory
system.mem_ctrls.bytes_read::cpu1.inst        4978368                       # Number of bytes read from this memory
system.mem_ctrls.bytes_read::cpu1.data        1996608                       # Number of bytes read from this memory
system.mem_ctrls.bytes_read::cpu2.inst       32209216                       # Number of bytes read from this memory
system.mem_ctrls.bytes_read::cpu2.data       14288640                       # Number of bytes read from this memory
system.mem_ctrls.bytes_read::cpu3.inst       22168256                       # Number of bytes read from this memory
system.mem_ctrls.bytes_read::cpu3.data        4721024                       # Number of bytes read from this memory
system.mem_ctrls.bytes_read::total          280594752                       # Number of bytes read from this memory
system.mem_ctrls.bytes_inst_read::cpu0.inst     44396032                       # Number of instructions bytes read from this memory
system.mem_ctrls.bytes_inst_read::cpu1.inst      4978368                       # Number of instructions bytes read from this memory
system.mem_ctrls.bytes_inst_read::cpu2.inst     32209216                       # Number of instructions bytes read from this memory
system.mem_ctrls.bytes_inst_read::cpu3.inst     22168256                       # Number of instructions bytes read from this memory
system.mem_ctrls.bytes_inst_read::total     103751872                       # Number of instructions bytes read from this memory
system.mem_ctrls.bytes_written::writebacks     28903872                       # Number of bytes written to this memory
system.mem_ctrls.bytes_written::tsunami.ide      2832384                       # Number of bytes written to this memory
system.mem_ctrls.bytes_written::total        31736256                       # Number of bytes written to this memory
system.mem_ctrls.num_reads::cpu0.inst          693688                       # Number of read requests responded to by this memory
system.mem_ctrls.num_reads::cpu0.data         2434737                       # Number of read requests responded to by this memory
system.mem_ctrls.num_reads::tsunami.ide           210                       # Number of read requests responded to by this memory
system.mem_ctrls.num_reads::cpu1.inst           77787                       # Number of read requests responded to by this memory
system.mem_ctrls.num_reads::cpu1.data           31197                       # Number of read requests responded to by this memory
system.mem_ctrls.num_reads::cpu2.inst          503269                       # Number of read requests responded to by this memory
system.mem_ctrls.num_reads::cpu2.data          223260                       # Number of read requests responded to by this memory
system.mem_ctrls.num_reads::cpu3.inst          346379                       # Number of read requests responded to by this memory
system.mem_ctrls.num_reads::cpu3.data           73766                       # Number of read requests responded to by this memory
system.mem_ctrls.num_reads::total             4384293                       # Number of read requests responded to by this memory
system.mem_ctrls.num_writes::writebacks        451623                       # Number of write requests responded to by this memory
system.mem_ctrls.num_writes::tsunami.ide        44256                       # Number of write requests responded to by this memory
system.mem_ctrls.num_writes::total             495879                       # Number of write requests responded to by this memory
system.mem_ctrls.bw_read::cpu0.inst          18068052                       # Total read bandwidth from this memory (bytes/s)
system.mem_ctrls.bw_read::cpu0.data          63416053                       # Total read bandwidth from this memory (bytes/s)
system.mem_ctrls.bw_read::tsunami.ide            5470                       # Total read bandwidth from this memory (bytes/s)
system.mem_ctrls.bw_read::cpu1.inst           2026069                       # Total read bandwidth from this memory (bytes/s)
system.mem_ctrls.bw_read::cpu1.data            812569                       # Total read bandwidth from this memory (bytes/s)
system.mem_ctrls.bw_read::cpu2.inst          13108329                       # Total read bandwidth from this memory (bytes/s)
system.mem_ctrls.bw_read::cpu2.data           5815112                       # Total read bandwidth from this memory (bytes/s)
system.mem_ctrls.bw_read::cpu3.inst           9021914                       # Total read bandwidth from this memory (bytes/s)
system.mem_ctrls.bw_read::cpu3.data           1921336                       # Total read bandwidth from this memory (bytes/s)
system.mem_ctrls.bw_read::total             114194903                       # Total read bandwidth from this memory (bytes/s)
system.mem_ctrls.bw_inst_read::cpu0.inst     18068052                       # Instruction read bandwidth from this memory (bytes/s)
system.mem_ctrls.bw_inst_read::cpu1.inst      2026069                       # Instruction read bandwidth from this memory (bytes/s)
system.mem_ctrls.bw_inst_read::cpu2.inst     13108329                       # Instruction read bandwidth from this memory (bytes/s)
system.mem_ctrls.bw_inst_read::cpu3.inst      9021914                       # Instruction read bandwidth from this memory (bytes/s)
system.mem_ctrls.bw_inst_read::total         42224364                       # Instruction read bandwidth from this memory (bytes/s)
system.mem_ctrls.bw_write::writebacks        11763138                       # Write bandwidth from this memory (bytes/s)
system.mem_ctrls.bw_write::tsunami.ide        1152708                       # Write bandwidth from this memory (bytes/s)
system.mem_ctrls.bw_write::total             12915846                       # Write bandwidth from this memory (bytes/s)
system.mem_ctrls.bw_total::writebacks        11763138                       # Total bandwidth to/from this memory (bytes/s)
system.mem_ctrls.bw_total::cpu0.inst         18068052                       # Total bandwidth to/from this memory (bytes/s)
system.mem_ctrls.bw_total::cpu0.data         63416053                       # Total bandwidth to/from this memory (bytes/s)
system.mem_ctrls.bw_total::tsunami.ide        1158178                       # Total bandwidth to/from this memory (bytes/s)
system.mem_ctrls.bw_total::cpu1.inst          2026069                       # Total bandwidth to/from this memory (bytes/s)
system.mem_ctrls.bw_total::cpu1.data           812569                       # Total bandwidth to/from this memory (bytes/s)
system.mem_ctrls.bw_total::cpu2.inst         13108329                       # Total bandwidth to/from this memory (bytes/s)
system.mem_ctrls.bw_total::cpu2.data          5815112                       # Total bandwidth to/from this memory (bytes/s)
system.mem_ctrls.bw_total::cpu3.inst          9021914                       # Total bandwidth to/from this memory (bytes/s)
system.mem_ctrls.bw_total::cpu3.data          1921336                       # Total bandwidth to/from this memory (bytes/s)
system.mem_ctrls.bw_total::total            127110750                       # Total bandwidth to/from this memory (bytes/s)
system.mem_ctrls.readReqs                     4384293                       # Number of read requests accepted
system.mem_ctrls.writeReqs                     495879                       # Number of write requests accepted
system.mem_ctrls.readBursts                   4384293                       # Number of DRAM read bursts, including those serviced by the write queue
system.mem_ctrls.writeBursts                   495879                       # Number of DRAM write bursts, including those merged in the write queue
system.mem_ctrls.bytesReadDRAM              278436544                       # Total number of bytes read from DRAM
system.mem_ctrls.bytesReadWrQ                 2158208                       # Total number of bytes read from write queue
system.mem_ctrls.bytesWritten                31528576                       # Total number of bytes written to DRAM
system.mem_ctrls.bytesReadSys               280594752                       # Total read bytes from the system interface side
system.mem_ctrls.bytesWrittenSys             31736256                       # Total written bytes from the system interface side
system.mem_ctrls.servicedByWrQ                  33722                       # Number of DRAM read bursts serviced by the write queue
system.mem_ctrls.mergedWrBursts                  3217                       # Number of DRAM write bursts merged with an existing one
system.mem_ctrls.neitherReadNorWriteReqs        32646                       # Number of requests that are neither read nor write
system.mem_ctrls.perBankRdBursts::0            265651                       # Per bank write bursts
system.mem_ctrls.perBankRdBursts::1            286959                       # Per bank write bursts
system.mem_ctrls.perBankRdBursts::2            239392                       # Per bank write bursts
system.mem_ctrls.perBankRdBursts::3            166532                       # Per bank write bursts
system.mem_ctrls.perBankRdBursts::4            191796                       # Per bank write bursts
system.mem_ctrls.perBankRdBursts::5            237680                       # Per bank write bursts
system.mem_ctrls.perBankRdBursts::6            252625                       # Per bank write bursts
system.mem_ctrls.perBankRdBursts::7            348425                       # Per bank write bursts
system.mem_ctrls.perBankRdBursts::8            358909                       # Per bank write bursts
system.mem_ctrls.perBankRdBursts::9            212413                       # Per bank write bursts
system.mem_ctrls.perBankRdBursts::10           321019                       # Per bank write bursts
system.mem_ctrls.perBankRdBursts::11           387290                       # Per bank write bursts
system.mem_ctrls.perBankRdBursts::12           261135                       # Per bank write bursts
system.mem_ctrls.perBankRdBursts::13           313935                       # Per bank write bursts
system.mem_ctrls.perBankRdBursts::14           221570                       # Per bank write bursts
system.mem_ctrls.perBankRdBursts::15           285240                       # Per bank write bursts
system.mem_ctrls.perBankWrBursts::0             26840                       # Per bank write bursts
system.mem_ctrls.perBankWrBursts::1             57544                       # Per bank write bursts
system.mem_ctrls.perBankWrBursts::2             27539                       # Per bank write bursts
system.mem_ctrls.perBankWrBursts::3             23720                       # Per bank write bursts
system.mem_ctrls.perBankWrBursts::4             27278                       # Per bank write bursts
system.mem_ctrls.perBankWrBursts::5             25228                       # Per bank write bursts
system.mem_ctrls.perBankWrBursts::6             31081                       # Per bank write bursts
system.mem_ctrls.perBankWrBursts::7             36898                       # Per bank write bursts
system.mem_ctrls.perBankWrBursts::8             22141                       # Per bank write bursts
system.mem_ctrls.perBankWrBursts::9             23805                       # Per bank write bursts
system.mem_ctrls.perBankWrBursts::10            30607                       # Per bank write bursts
system.mem_ctrls.perBankWrBursts::11            51862                       # Per bank write bursts
system.mem_ctrls.perBankWrBursts::12            24689                       # Per bank write bursts
system.mem_ctrls.perBankWrBursts::13            23554                       # Per bank write bursts
system.mem_ctrls.perBankWrBursts::14            24952                       # Per bank write bursts
system.mem_ctrls.perBankWrBursts::15            34896                       # Per bank write bursts
system.mem_ctrls.numRdRetry                         0                       # Number of times read queue was full causing retry
system.mem_ctrls.numWrRetry                        39                       # Number of times write queue was full causing retry
system.mem_ctrls.totGap                  2457156452000                       # Total gap between requests
system.mem_ctrls.readPktSize::0                     0                       # Read request sizes (log2)
system.mem_ctrls.readPktSize::1                     0                       # Read request sizes (log2)
system.mem_ctrls.readPktSize::2                     0                       # Read request sizes (log2)
system.mem_ctrls.readPktSize::3                     0                       # Read request sizes (log2)
system.mem_ctrls.readPktSize::4                     0                       # Read request sizes (log2)
system.mem_ctrls.readPktSize::5                     0                       # Read request sizes (log2)
system.mem_ctrls.readPktSize::6               4384293                       # Read request sizes (log2)
system.mem_ctrls.writePktSize::0                    0                       # Write request sizes (log2)
system.mem_ctrls.writePktSize::1                    0                       # Write request sizes (log2)
system.mem_ctrls.writePktSize::2                    0                       # Write request sizes (log2)
system.mem_ctrls.writePktSize::3                    0                       # Write request sizes (log2)
system.mem_ctrls.writePktSize::4                    0                       # Write request sizes (log2)
system.mem_ctrls.writePktSize::5                    0                       # Write request sizes (log2)
system.mem_ctrls.writePktSize::6               495879                       # Write request sizes (log2)
system.mem_ctrls.rdQLenPdf::0                 2772660                       # What read queue length does an incoming req see
system.mem_ctrls.rdQLenPdf::1                 1108108                       # What read queue length does an incoming req see
system.mem_ctrls.rdQLenPdf::2                  329035                       # What read queue length does an incoming req see
system.mem_ctrls.rdQLenPdf::3                  110134                       # What read queue length does an incoming req see
system.mem_ctrls.rdQLenPdf::4                   21483                       # What read queue length does an incoming req see
system.mem_ctrls.rdQLenPdf::5                    6277                       # What read queue length does an incoming req see
system.mem_ctrls.rdQLenPdf::6                    1978                       # What read queue length does an incoming req see
system.mem_ctrls.rdQLenPdf::7                     708                       # What read queue length does an incoming req see
system.mem_ctrls.rdQLenPdf::8                     132                       # What read queue length does an incoming req see
system.mem_ctrls.rdQLenPdf::9                      34                       # What read queue length does an incoming req see
system.mem_ctrls.rdQLenPdf::10                      9                       # What read queue length does an incoming req see
system.mem_ctrls.rdQLenPdf::11                      2                       # What read queue length does an incoming req see
system.mem_ctrls.rdQLenPdf::12                      2                       # What read queue length does an incoming req see
system.mem_ctrls.rdQLenPdf::13                      1                       # What read queue length does an incoming req see
system.mem_ctrls.rdQLenPdf::14                      2                       # What read queue length does an incoming req see
system.mem_ctrls.rdQLenPdf::15                      1                       # What read queue length does an incoming req see
system.mem_ctrls.rdQLenPdf::16                      1                       # What read queue length does an incoming req see
system.mem_ctrls.rdQLenPdf::17                      1                       # What read queue length does an incoming req see
system.mem_ctrls.rdQLenPdf::18                      1                       # What read queue length does an incoming req see
system.mem_ctrls.rdQLenPdf::19                      1                       # What read queue length does an incoming req see
system.mem_ctrls.rdQLenPdf::20                      1                       # What read queue length does an incoming req see
system.mem_ctrls.rdQLenPdf::21                      0                       # What read queue length does an incoming req see
system.mem_ctrls.rdQLenPdf::22                      0                       # What read queue length does an incoming req see
system.mem_ctrls.rdQLenPdf::23                      0                       # What read queue length does an incoming req see
system.mem_ctrls.rdQLenPdf::24                      0                       # What read queue length does an incoming req see
system.mem_ctrls.rdQLenPdf::25                      0                       # What read queue length does an incoming req see
system.mem_ctrls.rdQLenPdf::26                      0                       # What read queue length does an incoming req see
system.mem_ctrls.rdQLenPdf::27                      0                       # What read queue length does an incoming req see
system.mem_ctrls.rdQLenPdf::28                      0                       # What read queue length does an incoming req see
system.mem_ctrls.rdQLenPdf::29                      0                       # What read queue length does an incoming req see
system.mem_ctrls.rdQLenPdf::30                      0                       # What read queue length does an incoming req see
system.mem_ctrls.rdQLenPdf::31                      0                       # What read queue length does an incoming req see
system.mem_ctrls.wrQLenPdf::0                       1                       # What write queue length does an incoming req see
system.mem_ctrls.wrQLenPdf::1                       1                       # What write queue length does an incoming req see
system.mem_ctrls.wrQLenPdf::2                       1                       # What write queue length does an incoming req see
system.mem_ctrls.wrQLenPdf::3                       1                       # What write queue length does an incoming req see
system.mem_ctrls.wrQLenPdf::4                       1                       # What write queue length does an incoming req see
system.mem_ctrls.wrQLenPdf::5                       1                       # What write queue length does an incoming req see
system.mem_ctrls.wrQLenPdf::6                       1                       # What write queue length does an incoming req see
system.mem_ctrls.wrQLenPdf::7                       1                       # What write queue length does an incoming req see
system.mem_ctrls.wrQLenPdf::8                       1                       # What write queue length does an incoming req see
system.mem_ctrls.wrQLenPdf::9                       1                       # What write queue length does an incoming req see
system.mem_ctrls.wrQLenPdf::10                      1                       # What write queue length does an incoming req see
system.mem_ctrls.wrQLenPdf::11                      1                       # What write queue length does an incoming req see
system.mem_ctrls.wrQLenPdf::12                      1                       # What write queue length does an incoming req see
system.mem_ctrls.wrQLenPdf::13                      1                       # What write queue length does an incoming req see
system.mem_ctrls.wrQLenPdf::14                      1                       # What write queue length does an incoming req see
system.mem_ctrls.wrQLenPdf::15                   1046                       # What write queue length does an incoming req see
system.mem_ctrls.wrQLenPdf::16                   1528                       # What write queue length does an incoming req see
system.mem_ctrls.wrQLenPdf::17                  15965                       # What write queue length does an incoming req see
system.mem_ctrls.wrQLenPdf::18                  19491                       # What write queue length does an incoming req see
system.mem_ctrls.wrQLenPdf::19                  21742                       # What write queue length does an incoming req see
system.mem_ctrls.wrQLenPdf::20                  26860                       # What write queue length does an incoming req see
system.mem_ctrls.wrQLenPdf::21                  28977                       # What write queue length does an incoming req see
system.mem_ctrls.wrQLenPdf::22                  31031                       # What write queue length does an incoming req see
system.mem_ctrls.wrQLenPdf::23                  33145                       # What write queue length does an incoming req see
system.mem_ctrls.wrQLenPdf::24                  34381                       # What write queue length does an incoming req see
system.mem_ctrls.wrQLenPdf::25                  34621                       # What write queue length does an incoming req see
system.mem_ctrls.wrQLenPdf::26                  35997                       # What write queue length does an incoming req see
system.mem_ctrls.wrQLenPdf::27                  35059                       # What write queue length does an incoming req see
system.mem_ctrls.wrQLenPdf::28                  35346                       # What write queue length does an incoming req see
system.mem_ctrls.wrQLenPdf::29                  32248                       # What write queue length does an incoming req see
system.mem_ctrls.wrQLenPdf::30                  32035                       # What write queue length does an incoming req see
system.mem_ctrls.wrQLenPdf::31                  31643                       # What write queue length does an incoming req see
system.mem_ctrls.wrQLenPdf::32                  31030                       # What write queue length does an incoming req see
system.mem_ctrls.wrQLenPdf::33                   1579                       # What write queue length does an incoming req see
system.mem_ctrls.wrQLenPdf::34                   1148                       # What write queue length does an incoming req see
system.mem_ctrls.wrQLenPdf::35                    877                       # What write queue length does an incoming req see
system.mem_ctrls.wrQLenPdf::36                    732                       # What write queue length does an incoming req see
system.mem_ctrls.wrQLenPdf::37                    578                       # What write queue length does an incoming req see
system.mem_ctrls.wrQLenPdf::38                    485                       # What write queue length does an incoming req see
system.mem_ctrls.wrQLenPdf::39                    402                       # What write queue length does an incoming req see
system.mem_ctrls.wrQLenPdf::40                    334                       # What write queue length does an incoming req see
system.mem_ctrls.wrQLenPdf::41                    292                       # What write queue length does an incoming req see
system.mem_ctrls.wrQLenPdf::42                    288                       # What write queue length does an incoming req see
system.mem_ctrls.wrQLenPdf::43                    256                       # What write queue length does an incoming req see
system.mem_ctrls.wrQLenPdf::44                    227                       # What write queue length does an incoming req see
system.mem_ctrls.wrQLenPdf::45                    218                       # What write queue length does an incoming req see
system.mem_ctrls.wrQLenPdf::46                    223                       # What write queue length does an incoming req see
system.mem_ctrls.wrQLenPdf::47                    208                       # What write queue length does an incoming req see
system.mem_ctrls.wrQLenPdf::48                    194                       # What write queue length does an incoming req see
system.mem_ctrls.wrQLenPdf::49                    163                       # What write queue length does an incoming req see
system.mem_ctrls.wrQLenPdf::50                    164                       # What write queue length does an incoming req see
system.mem_ctrls.wrQLenPdf::51                    173                       # What write queue length does an incoming req see
system.mem_ctrls.wrQLenPdf::52                    172                       # What write queue length does an incoming req see
system.mem_ctrls.wrQLenPdf::53                    145                       # What write queue length does an incoming req see
system.mem_ctrls.wrQLenPdf::54                    155                       # What write queue length does an incoming req see
system.mem_ctrls.wrQLenPdf::55                    150                       # What write queue length does an incoming req see
system.mem_ctrls.wrQLenPdf::56                    175                       # What write queue length does an incoming req see
system.mem_ctrls.wrQLenPdf::57                    186                       # What write queue length does an incoming req see
system.mem_ctrls.wrQLenPdf::58                    209                       # What write queue length does an incoming req see
system.mem_ctrls.wrQLenPdf::59                    199                       # What write queue length does an incoming req see
system.mem_ctrls.wrQLenPdf::60                    183                       # What write queue length does an incoming req see
system.mem_ctrls.wrQLenPdf::61                    174                       # What write queue length does an incoming req see
system.mem_ctrls.wrQLenPdf::62                    115                       # What write queue length does an incoming req see
system.mem_ctrls.wrQLenPdf::63                     98                       # What write queue length does an incoming req see
system.mem_ctrls.bytesPerActivate::samples      1024563                       # Bytes accessed per row activation
system.mem_ctrls.bytesPerActivate::mean    302.531917                       # Bytes accessed per row activation
system.mem_ctrls.bytesPerActivate::gmean   175.908259                       # Bytes accessed per row activation
system.mem_ctrls.bytesPerActivate::stdev   330.864125                       # Bytes accessed per row activation
system.mem_ctrls.bytesPerActivate::0-127       399796     39.02%     39.02% # Bytes accessed per row activation
system.mem_ctrls.bytesPerActivate::128-255       244173     23.83%     62.85% # Bytes accessed per row activation
system.mem_ctrls.bytesPerActivate::256-383       104153     10.17%     73.02% # Bytes accessed per row activation
system.mem_ctrls.bytesPerActivate::384-511        53612      5.23%     78.25% # Bytes accessed per row activation
system.mem_ctrls.bytesPerActivate::512-639        38535      3.76%     82.01% # Bytes accessed per row activation
system.mem_ctrls.bytesPerActivate::640-767        22056      2.15%     84.17% # Bytes accessed per row activation
system.mem_ctrls.bytesPerActivate::768-895        17751      1.73%     85.90% # Bytes accessed per row activation
system.mem_ctrls.bytesPerActivate::896-1023        15046      1.47%     87.37% # Bytes accessed per row activation
system.mem_ctrls.bytesPerActivate::1024-1151       129441     12.63%    100.00% # Bytes accessed per row activation
system.mem_ctrls.bytesPerActivate::total      1024563                       # Bytes accessed per row activation
system.mem_ctrls.rdPerTurnAround::samples        30077                       # Reads before turning the bus around for writes
system.mem_ctrls.rdPerTurnAround::mean     144.646175                       # Reads before turning the bus around for writes
system.mem_ctrls.rdPerTurnAround::stdev   5954.203124                       # Reads before turning the bus around for writes
system.mem_ctrls.rdPerTurnAround::0-32767        30076    100.00%    100.00% # Reads before turning the bus around for writes
system.mem_ctrls.rdPerTurnAround::1.01581e+06-1.04858e+06            1      0.00%    100.00% # Reads before turning the bus around for writes
system.mem_ctrls.rdPerTurnAround::total         30077                       # Reads before turning the bus around for writes
system.mem_ctrls.wrPerTurnAround::samples        30077                       # Writes before turning the bus around for reads
system.mem_ctrls.wrPerTurnAround::mean      16.379094                       # Writes before turning the bus around for reads
system.mem_ctrls.wrPerTurnAround::gmean     16.217505                       # Writes before turning the bus around for reads
system.mem_ctrls.wrPerTurnAround::stdev      4.328025                       # Writes before turning the bus around for reads
system.mem_ctrls.wrPerTurnAround::16-19         29714     98.79%     98.79% # Writes before turning the bus around for reads
system.mem_ctrls.wrPerTurnAround::20-23           151      0.50%     99.30% # Writes before turning the bus around for reads
system.mem_ctrls.wrPerTurnAround::24-27            40      0.13%     99.43% # Writes before turning the bus around for reads
system.mem_ctrls.wrPerTurnAround::28-31            69      0.23%     99.66% # Writes before turning the bus around for reads
system.mem_ctrls.wrPerTurnAround::32-35            11      0.04%     99.69% # Writes before turning the bus around for reads
system.mem_ctrls.wrPerTurnAround::36-39             2      0.01%     99.70% # Writes before turning the bus around for reads
system.mem_ctrls.wrPerTurnAround::44-47             1      0.00%     99.70% # Writes before turning the bus around for reads
system.mem_ctrls.wrPerTurnAround::48-51             8      0.03%     99.73% # Writes before turning the bus around for reads
system.mem_ctrls.wrPerTurnAround::56-59             2      0.01%     99.74% # Writes before turning the bus around for reads
system.mem_ctrls.wrPerTurnAround::60-63             2      0.01%     99.74% # Writes before turning the bus around for reads
system.mem_ctrls.wrPerTurnAround::64-67             3      0.01%     99.75% # Writes before turning the bus around for reads
system.mem_ctrls.wrPerTurnAround::72-75             1      0.00%     99.76% # Writes before turning the bus around for reads
system.mem_ctrls.wrPerTurnAround::76-79             1      0.00%     99.76% # Writes before turning the bus around for reads
system.mem_ctrls.wrPerTurnAround::80-83            11      0.04%     99.80% # Writes before turning the bus around for reads
system.mem_ctrls.wrPerTurnAround::84-87             2      0.01%     99.80% # Writes before turning the bus around for reads
system.mem_ctrls.wrPerTurnAround::88-91             5      0.02%     99.82% # Writes before turning the bus around for reads
system.mem_ctrls.wrPerTurnAround::92-95             2      0.01%     99.83% # Writes before turning the bus around for reads
system.mem_ctrls.wrPerTurnAround::96-99            42      0.14%     99.97% # Writes before turning the bus around for reads
system.mem_ctrls.wrPerTurnAround::100-103            2      0.01%     99.97% # Writes before turning the bus around for reads
system.mem_ctrls.wrPerTurnAround::112-115            1      0.00%     99.98% # Writes before turning the bus around for reads
system.mem_ctrls.wrPerTurnAround::128-131            1      0.00%     99.98% # Writes before turning the bus around for reads
system.mem_ctrls.wrPerTurnAround::132-135            2      0.01%     99.99% # Writes before turning the bus around for reads
system.mem_ctrls.wrPerTurnAround::144-147            2      0.01%     99.99% # Writes before turning the bus around for reads
system.mem_ctrls.wrPerTurnAround::152-155            1      0.00%    100.00% # Writes before turning the bus around for reads
system.mem_ctrls.wrPerTurnAround::156-159            1      0.00%    100.00% # Writes before turning the bus around for reads
system.mem_ctrls.wrPerTurnAround::total         30077                       # Writes before turning the bus around for reads
system.mem_ctrls.totQLat                  45296030083                       # Total ticks spent queuing
system.mem_ctrls.totMemAccLat            126869236333                       # Total ticks spent from burst creation until serviced by the DRAM
system.mem_ctrls.totBusLat                21752855000                       # Total ticks spent in databus transfers
system.mem_ctrls.avgQLat                     10411.51                       # Average queueing delay per DRAM burst
system.mem_ctrls.avgBusLat                    5000.00                       # Average bus latency per DRAM burst
system.mem_ctrls.avgMemAccLat                29161.51                       # Average memory access latency per DRAM burst
system.mem_ctrls.avgRdBW                       113.32                       # Average DRAM read bandwidth in MiByte/s
system.mem_ctrls.avgWrBW                        12.83                       # Average achieved write bandwidth in MiByte/s
system.mem_ctrls.avgRdBWSys                    114.19                       # Average system read bandwidth in MiByte/s
system.mem_ctrls.avgWrBWSys                     12.92                       # Average system write bandwidth in MiByte/s
system.mem_ctrls.peakBW                      12800.00                       # Theoretical peak bandwidth in MiByte/s
system.mem_ctrls.busUtil                         0.99                       # Data bus utilization in percentage
system.mem_ctrls.busUtilRead                     0.89                       # Data bus utilization in percentage for reads
system.mem_ctrls.busUtilWrite                    0.10                       # Data bus utilization in percentage for writes
system.mem_ctrls.avgRdQLen                       1.15                       # Average read queue length when enqueuing
system.mem_ctrls.avgWrQLen                      26.16                       # Average write queue length when enqueuing
system.mem_ctrls.readRowHits                  3472221                       # Number of row buffer hits during reads
system.mem_ctrls.writeRowHits                  346407                       # Number of row buffer hits during writes
system.mem_ctrls.readRowHitRate                 79.81                       # Row buffer hit rate for reads
system.mem_ctrls.writeRowHitRate                70.31                       # Row buffer hit rate for writes
system.mem_ctrls.avgGap                     503497.92                       # Average gap between requests
system.mem_ctrls.pageHitRate                    78.84                       # Row buffer hit rate, read and write combined
system.mem_ctrls.memoryStateTime::IDLE   2196246827500                       # Time in different power states
system.mem_ctrls.memoryStateTime::REF     82049760000                       # Time in different power states
system.mem_ctrls.memoryStateTime::PRE_PDN            0                       # Time in different power states
system.mem_ctrls.memoryStateTime::ACT    178857322750                       # Time in different power states
system.mem_ctrls.memoryStateTime::ACT_PDN            0                       # Time in different power states
system.mem_ctrls.actEnergy::0              3276428400                       # Energy for activate commands per rank (pJ)
system.mem_ctrls.actEnergy::1              4469162040                       # Energy for activate commands per rank (pJ)
system.mem_ctrls.preEnergy::0              1787733750                       # Energy for precharge commands per rank (pJ)
system.mem_ctrls.preEnergy::1              2438530875                       # Energy for precharge commands per rank (pJ)
system.mem_ctrls.readEnergy::0            15514488600                       # Energy for read commands per rank (pJ)
system.mem_ctrls.readEnergy::1            18419497200                       # Energy for read commands per rank (pJ)
system.mem_ctrls.writeEnergy::0            1659683520                       # Energy for write commands per rank (pJ)
system.mem_ctrls.writeEnergy::1            1532481120                       # Energy for write commands per rank (pJ)
system.mem_ctrls.refreshEnergy::0        160489330560                       # Energy for refresh commands per rank (pJ)
system.mem_ctrls.refreshEnergy::1        160489330560                       # Energy for refresh commands per rank (pJ)
system.mem_ctrls.actBackEnergy::0        152761472595                       # Energy for active background per rank (pJ)
system.mem_ctrls.actBackEnergy::1        157183740360                       # Energy for active background per rank (pJ)
system.mem_ctrls.preBackEnergy::0        1340291046750                       # Energy for precharge background per rank (pJ)
system.mem_ctrls.preBackEnergy::1        1336411864500                       # Energy for precharge background per rank (pJ)
system.mem_ctrls.totalEnergy::0          1675780184175                       # Total energy per rank (pJ)
system.mem_ctrls.totalEnergy::1          1680944606655                       # Total energy per rank (pJ)
system.mem_ctrls.averagePower::0           682.000499                       # Core power per rank (mW)
system.mem_ctrls.averagePower::1           684.102289                       # Core power per rank (mW)
system.membus.trans_dist::ReadReq             4249786                       # Transaction distribution
system.membus.trans_dist::ReadResp            4249323                       # Transaction distribution
system.membus.trans_dist::WriteReq              24827                       # Transaction distribution
system.membus.trans_dist::WriteResp             24827                       # Transaction distribution
system.membus.trans_dist::Writeback            451623                       # Transaction distribution
system.membus.trans_dist::WriteInvalidateReq        44256                       # Transaction distribution
system.membus.trans_dist::WriteInvalidateResp        44256                       # Transaction distribution
system.membus.trans_dist::UpgradeReq            88934                       # Transaction distribution
system.membus.trans_dist::SCUpgradeReq          53535                       # Transaction distribution
system.membus.trans_dist::UpgradeResp          142469                       # Transaction distribution
system.membus.trans_dist::SCUpgradeFailReq            4                       # Transaction distribution
system.membus.trans_dist::UpgradeFailResp            4                       # Transaction distribution
system.membus.trans_dist::ReadExReq            355400                       # Transaction distribution
system.membus.trans_dist::ReadExResp           355400                       # Transaction distribution
system.membus.trans_dist::BadAddressError          463                       # Transaction distribution
system.membus.pkt_count_system.iocache.mem_side::system.mem_ctrls.port        88932                       # Packet count per connected master and slave (bytes)
system.membus.pkt_count_system.iocache.mem_side::total        88932                       # Packet count per connected master and slave (bytes)
system.membus.pkt_count_system.cpu0.icache.mem_side::system.mem_ctrls.port      1389624                       # Packet count per connected master and slave (bytes)
system.membus.pkt_count_system.cpu0.icache.mem_side::total      1389624                       # Packet count per connected master and slave (bytes)
system.membus.pkt_count_system.cpu0.dcache.mem_side::system.bridge.slave        30734                       # Packet count per connected master and slave (bytes)
system.membus.pkt_count_system.cpu0.dcache.mem_side::system.mem_ctrls.port      5251719                       # Packet count per connected master and slave (bytes)
system.membus.pkt_count_system.cpu0.dcache.mem_side::system.membus.badaddr_responder.pio          690                       # Packet count per connected master and slave (bytes)
system.membus.pkt_count_system.cpu0.dcache.mem_side::total      5283143                       # Packet count per connected master and slave (bytes)
system.membus.pkt_count_system.cpu1.icache.mem_side::system.mem_ctrls.port       155620                       # Packet count per connected master and slave (bytes)
system.membus.pkt_count_system.cpu1.icache.mem_side::total       155620                       # Packet count per connected master and slave (bytes)
system.membus.pkt_count_system.cpu1.dcache.mem_side::system.bridge.slave         5850                       # Packet count per connected master and slave (bytes)
system.membus.pkt_count_system.cpu1.dcache.mem_side::system.mem_ctrls.port        97163                       # Packet count per connected master and slave (bytes)
system.membus.pkt_count_system.cpu1.dcache.mem_side::system.membus.badaddr_responder.pio           26                       # Packet count per connected master and slave (bytes)
system.membus.pkt_count_system.cpu1.dcache.mem_side::total       103039                       # Packet count per connected master and slave (bytes)
system.membus.pkt_count_system.cpu2.icache.mem_side::system.mem_ctrls.port      1006687                       # Packet count per connected master and slave (bytes)
system.membus.pkt_count_system.cpu2.icache.mem_side::total      1006687                       # Packet count per connected master and slave (bytes)
system.membus.pkt_count_system.cpu2.dcache.mem_side::system.bridge.slave        19162                       # Packet count per connected master and slave (bytes)
system.membus.pkt_count_system.cpu2.dcache.mem_side::system.mem_ctrls.port       661679                       # Packet count per connected master and slave (bytes)
system.membus.pkt_count_system.cpu2.dcache.mem_side::system.membus.badaddr_responder.pio          192                       # Packet count per connected master and slave (bytes)
system.membus.pkt_count_system.cpu2.dcache.mem_side::total       681033                       # Packet count per connected master and slave (bytes)
system.membus.pkt_count_system.cpu3.icache.mem_side::system.mem_ctrls.port       692821                       # Packet count per connected master and slave (bytes)
system.membus.pkt_count_system.cpu3.icache.mem_side::total       692821                       # Packet count per connected master and slave (bytes)
system.membus.pkt_count_system.cpu3.dcache.mem_side::system.bridge.slave         8438                       # Packet count per connected master and slave (bytes)
system.membus.pkt_count_system.cpu3.dcache.mem_side::system.mem_ctrls.port       352760                       # Packet count per connected master and slave (bytes)
system.membus.pkt_count_system.cpu3.dcache.mem_side::system.membus.badaddr_responder.pio           18                       # Packet count per connected master and slave (bytes)
system.membus.pkt_count_system.cpu3.dcache.mem_side::total       361216                       # Packet count per connected master and slave (bytes)
system.membus.pkt_count::total                9762115                       # Packet count per connected master and slave (bytes)
system.membus.pkt_size_system.iocache.mem_side::system.mem_ctrls.port      2845824                       # Cumulative packet size per connected master and slave (bytes)
system.membus.pkt_size_system.iocache.mem_side::total      2845824                       # Cumulative packet size per connected master and slave (bytes)
system.membus.pkt_size_system.cpu0.icache.mem_side::system.mem_ctrls.port     44396032                       # Cumulative packet size per connected master and slave (bytes)
system.membus.pkt_size_system.cpu0.icache.mem_side::total     44396032                       # Cumulative packet size per connected master and slave (bytes)
system.membus.pkt_size_system.cpu0.dcache.mem_side::system.bridge.slave        55330                       # Cumulative packet size per connected master and slave (bytes)
system.membus.pkt_size_system.cpu0.dcache.mem_side::system.mem_ctrls.port    173671296                       # Cumulative packet size per connected master and slave (bytes)
system.membus.pkt_size_system.cpu0.dcache.mem_side::total    173726626                       # Cumulative packet size per connected master and slave (bytes)
system.membus.pkt_size_system.cpu1.icache.mem_side::system.mem_ctrls.port      4978368                       # Cumulative packet size per connected master and slave (bytes)
system.membus.pkt_size_system.cpu1.icache.mem_side::total      4978368                       # Cumulative packet size per connected master and slave (bytes)
system.membus.pkt_size_system.cpu1.dcache.mem_side::system.bridge.slave        23147                       # Cumulative packet size per connected master and slave (bytes)
system.membus.pkt_size_system.cpu1.dcache.mem_side::system.mem_ctrls.port      2921792                       # Cumulative packet size per connected master and slave (bytes)
system.membus.pkt_size_system.cpu1.dcache.mem_side::total      2944939                       # Cumulative packet size per connected master and slave (bytes)
system.membus.pkt_size_system.cpu2.icache.mem_side::system.mem_ctrls.port     32209216                       # Cumulative packet size per connected master and slave (bytes)
system.membus.pkt_size_system.cpu2.icache.mem_side::total     32209216                       # Cumulative packet size per connected master and slave (bytes)
system.membus.pkt_size_system.cpu2.dcache.mem_side::system.bridge.slave        52148                       # Cumulative packet size per connected master and slave (bytes)
system.membus.pkt_size_system.cpu2.dcache.mem_side::system.mem_ctrls.port     19885696                       # Cumulative packet size per connected master and slave (bytes)
system.membus.pkt_size_system.cpu2.dcache.mem_side::total     19937844                       # Cumulative packet size per connected master and slave (bytes)
system.membus.pkt_size_system.cpu3.icache.mem_side::system.mem_ctrls.port     22168256                       # Cumulative packet size per connected master and slave (bytes)
system.membus.pkt_size_system.cpu3.icache.mem_side::total     22168256                       # Cumulative packet size per connected master and slave (bytes)
system.membus.pkt_size_system.cpu3.dcache.mem_side::system.bridge.slave        32004                       # Cumulative packet size per connected master and slave (bytes)
system.membus.pkt_size_system.cpu3.dcache.mem_side::system.mem_ctrls.port      9254528                       # Cumulative packet size per connected master and slave (bytes)
system.membus.pkt_size_system.cpu3.dcache.mem_side::total      9286532                       # Cumulative packet size per connected master and slave (bytes)
system.membus.pkt_size::total               312493637                       # Cumulative packet size per connected master and slave (bytes)
system.membus.snoops                           322992                       # Total snoops (count)
system.membus.snoop_fanout::samples           5236312                       # Request fanout histogram
system.membus.snoop_fanout::mean                    8                       # Request fanout histogram
system.membus.snoop_fanout::stdev                   0                       # Request fanout histogram
system.membus.snoop_fanout::underflows              0      0.00%      0.00% # Request fanout histogram
system.membus.snoop_fanout::0                       0      0.00%      0.00% # Request fanout histogram
system.membus.snoop_fanout::1                       0      0.00%      0.00% # Request fanout histogram
system.membus.snoop_fanout::2                       0      0.00%      0.00% # Request fanout histogram
system.membus.snoop_fanout::3                       0      0.00%      0.00% # Request fanout histogram
system.membus.snoop_fanout::4                       0      0.00%      0.00% # Request fanout histogram
system.membus.snoop_fanout::5                       0      0.00%      0.00% # Request fanout histogram
system.membus.snoop_fanout::6                       0      0.00%      0.00% # Request fanout histogram
system.membus.snoop_fanout::7                       0      0.00%      0.00% # Request fanout histogram
system.membus.snoop_fanout::8                 5236312    100.00%    100.00% # Request fanout histogram
system.membus.snoop_fanout::9                       0      0.00%    100.00% # Request fanout histogram
system.membus.snoop_fanout::overflows               0      0.00%    100.00% # Request fanout histogram
system.membus.snoop_fanout::min_value               8                       # Request fanout histogram
system.membus.snoop_fanout::max_value               8                       # Request fanout histogram
system.membus.snoop_fanout::total             5236312                       # Request fanout histogram
system.membus.reqLayer0.occupancy            61112495                       # Layer occupancy (ticks)
system.membus.reqLayer0.utilization               0.0                       # Layer utilization (%)
system.membus.reqLayer1.occupancy         10544101977                       # Layer occupancy (ticks)
system.membus.reqLayer1.utilization               0.4                       # Layer utilization (%)
system.membus.reqLayer2.occupancy              549000                       # Layer occupancy (ticks)
system.membus.reqLayer2.utilization               0.0                       # Layer utilization (%)
system.membus.respLayer1.occupancy           46431251                       # Layer occupancy (ticks)
system.membus.respLayer1.utilization              0.0                       # Layer utilization (%)
system.membus.respLayer2.occupancy         6571078172                       # Layer occupancy (ticks)
system.membus.respLayer2.utilization              0.3                       # Layer utilization (%)
system.membus.respLayer3.occupancy        23497396895                       # Layer occupancy (ticks)
system.membus.respLayer3.utilization              1.0                       # Layer utilization (%)
system.membus.respLayer4.occupancy          730877290                       # Layer occupancy (ticks)
system.membus.respLayer4.utilization              0.0                       # Layer utilization (%)
system.membus.respLayer5.occupancy          407322101                       # Layer occupancy (ticks)
system.membus.respLayer5.utilization              0.0                       # Layer utilization (%)
system.membus.respLayer6.occupancy         4748025832                       # Layer occupancy (ticks)
system.membus.respLayer6.utilization              0.2                       # Layer utilization (%)
system.membus.respLayer7.occupancy         2761103919                       # Layer occupancy (ticks)
system.membus.respLayer7.utilization              0.1                       # Layer utilization (%)
system.membus.respLayer8.occupancy         3266339955                       # Layer occupancy (ticks)
system.membus.respLayer8.utilization              0.1                       # Layer utilization (%)
system.membus.respLayer9.occupancy         1498194877                       # Layer occupancy (ticks)
system.membus.respLayer9.utilization              0.1                       # Layer utilization (%)
system.iocache.tags.replacements                44450                       # number of replacements
system.iocache.tags.tagsinuse                0.269984                       # Cycle average of tags in use
system.iocache.tags.total_refs                      0                       # Total number of references to valid blocks.
system.iocache.tags.sampled_refs                44450                       # Sample count of references to valid blocks.
system.iocache.tags.avg_refs                        0                       # Average number of references to valid blocks.
system.iocache.tags.warmup_cycle         2415694600000                       # Cycle when the warmup percentage was hit.
system.iocache.tags.occ_blocks::tsunami.ide     0.269984                       # Average occupied blocks per requestor
system.iocache.tags.occ_percent::tsunami.ide     0.016874                       # Average percentage of cache occupancy
system.iocache.tags.occ_percent::total       0.016874                       # Average percentage of cache occupancy
system.iocache.tags.occ_task_id_blocks::1023           16                       # Occupied blocks per task id
system.iocache.tags.age_task_id_blocks_1023::3           16                       # Occupied blocks per task id
system.iocache.tags.occ_task_id_percent::1023            1                       # Percentage of cache occupancy per task id
system.iocache.tags.tag_accesses               400370                       # Number of tag accesses
system.iocache.tags.data_accesses              400370                       # Number of data accesses
system.iocache.WriteInvalidateReq_hits::tsunami.ide        44256                       # number of WriteInvalidateReq hits
system.iocache.WriteInvalidateReq_hits::total        44256                       # number of WriteInvalidateReq hits
system.iocache.ReadReq_misses::tsunami.ide          210                       # number of ReadReq misses
system.iocache.ReadReq_misses::total              210                       # number of ReadReq misses
system.iocache.WriteInvalidateReq_misses::tsunami.ide           22                       # number of WriteInvalidateReq misses
system.iocache.WriteInvalidateReq_misses::total           22                       # number of WriteInvalidateReq misses
system.iocache.demand_misses::tsunami.ide          210                       # number of demand (read+write) misses
system.iocache.demand_misses::total               210                       # number of demand (read+write) misses
system.iocache.overall_misses::tsunami.ide          210                       # number of overall misses
system.iocache.overall_misses::total              210                       # number of overall misses
system.iocache.ReadReq_miss_latency::tsunami.ide     36923354                       # number of ReadReq miss cycles
system.iocache.ReadReq_miss_latency::total     36923354                       # number of ReadReq miss cycles
system.iocache.demand_miss_latency::tsunami.ide     36923354                       # number of demand (read+write) miss cycles
system.iocache.demand_miss_latency::total     36923354                       # number of demand (read+write) miss cycles
system.iocache.overall_miss_latency::tsunami.ide     36923354                       # number of overall miss cycles
system.iocache.overall_miss_latency::total     36923354                       # number of overall miss cycles
system.iocache.ReadReq_accesses::tsunami.ide          210                       # number of ReadReq accesses(hits+misses)
system.iocache.ReadReq_accesses::total            210                       # number of ReadReq accesses(hits+misses)
system.iocache.WriteInvalidateReq_accesses::tsunami.ide        44278                       # number of WriteInvalidateReq accesses(hits+misses)
system.iocache.WriteInvalidateReq_accesses::total        44278                       # number of WriteInvalidateReq accesses(hits+misses)
system.iocache.demand_accesses::tsunami.ide          210                       # number of demand (read+write) accesses
system.iocache.demand_accesses::total             210                       # number of demand (read+write) accesses
system.iocache.overall_accesses::tsunami.ide          210                       # number of overall (read+write) accesses
system.iocache.overall_accesses::total            210                       # number of overall (read+write) accesses
system.iocache.ReadReq_miss_rate::tsunami.ide            1                       # miss rate for ReadReq accesses
system.iocache.ReadReq_miss_rate::total             1                       # miss rate for ReadReq accesses
system.iocache.WriteInvalidateReq_miss_rate::tsunami.ide     0.000497                       # miss rate for WriteInvalidateReq accesses
system.iocache.WriteInvalidateReq_miss_rate::total     0.000497                       # miss rate for WriteInvalidateReq accesses
system.iocache.demand_miss_rate::tsunami.ide            1                       # miss rate for demand accesses
system.iocache.demand_miss_rate::total              1                       # miss rate for demand accesses
system.iocache.overall_miss_rate::tsunami.ide            1                       # miss rate for overall accesses
system.iocache.overall_miss_rate::total             1                       # miss rate for overall accesses
system.iocache.ReadReq_avg_miss_latency::tsunami.ide 175825.495238                       # average ReadReq miss latency
system.iocache.ReadReq_avg_miss_latency::total 175825.495238                       # average ReadReq miss latency
system.iocache.demand_avg_miss_latency::tsunami.ide 175825.495238                       # average overall miss latency
system.iocache.demand_avg_miss_latency::total 175825.495238                       # average overall miss latency
system.iocache.overall_avg_miss_latency::tsunami.ide 175825.495238                       # average overall miss latency
system.iocache.overall_avg_miss_latency::total 175825.495238                       # average overall miss latency
system.iocache.blocked_cycles::no_mshrs           442                       # number of cycles access was blocked
system.iocache.blocked_cycles::no_targets            0                       # number of cycles access was blocked
system.iocache.blocked::no_mshrs                   45                       # number of cycles access was blocked
system.iocache.blocked::no_targets                  0                       # number of cycles access was blocked
system.iocache.avg_blocked_cycles::no_mshrs     9.822222                       # average number of cycles each access was blocked
system.iocache.avg_blocked_cycles::no_targets          nan                       # average number of cycles each access was blocked
system.iocache.fast_writes                      44256                       # number of fast writes performed
system.iocache.cache_copies                         0                       # number of cache copies performed
system.iocache.ReadReq_mshr_misses::tsunami.ide          210                       # number of ReadReq MSHR misses
system.iocache.ReadReq_mshr_misses::total          210                       # number of ReadReq MSHR misses
system.iocache.WriteInvalidateReq_mshr_misses::tsunami.ide        44256                       # number of WriteInvalidateReq MSHR misses
system.iocache.WriteInvalidateReq_mshr_misses::total        44256                       # number of WriteInvalidateReq MSHR misses
system.iocache.demand_mshr_misses::tsunami.ide          210                       # number of demand (read+write) MSHR misses
system.iocache.demand_mshr_misses::total          210                       # number of demand (read+write) MSHR misses
system.iocache.overall_mshr_misses::tsunami.ide          210                       # number of overall MSHR misses
system.iocache.overall_mshr_misses::total          210                       # number of overall MSHR misses
system.iocache.ReadReq_mshr_miss_latency::tsunami.ide     25951854                       # number of ReadReq MSHR miss cycles
system.iocache.ReadReq_mshr_miss_latency::total     25951854                       # number of ReadReq MSHR miss cycles
system.iocache.WriteInvalidateReq_mshr_miss_latency::tsunami.ide   3101860463                       # number of WriteInvalidateReq MSHR miss cycles
system.iocache.WriteInvalidateReq_mshr_miss_latency::total   3101860463                       # number of WriteInvalidateReq MSHR miss cycles
system.iocache.demand_mshr_miss_latency::tsunami.ide     25951854                       # number of demand (read+write) MSHR miss cycles
system.iocache.demand_mshr_miss_latency::total     25951854                       # number of demand (read+write) MSHR miss cycles
system.iocache.overall_mshr_miss_latency::tsunami.ide     25951854                       # number of overall MSHR miss cycles
system.iocache.overall_mshr_miss_latency::total     25951854                       # number of overall MSHR miss cycles
system.iocache.ReadReq_mshr_miss_rate::tsunami.ide            1                       # mshr miss rate for ReadReq accesses
system.iocache.ReadReq_mshr_miss_rate::total            1                       # mshr miss rate for ReadReq accesses
system.iocache.WriteInvalidateReq_mshr_miss_rate::tsunami.ide     0.999503                       # mshr miss rate for WriteInvalidateReq accesses
system.iocache.WriteInvalidateReq_mshr_miss_rate::total     0.999503                       # mshr miss rate for WriteInvalidateReq accesses
system.iocache.demand_mshr_miss_rate::tsunami.ide            1                       # mshr miss rate for demand accesses
system.iocache.demand_mshr_miss_rate::total            1                       # mshr miss rate for demand accesses
system.iocache.overall_mshr_miss_rate::tsunami.ide            1                       # mshr miss rate for overall accesses
system.iocache.overall_mshr_miss_rate::total            1                       # mshr miss rate for overall accesses
system.iocache.ReadReq_avg_mshr_miss_latency::tsunami.ide 123580.257143                       # average ReadReq mshr miss latency
system.iocache.ReadReq_avg_mshr_miss_latency::total 123580.257143                       # average ReadReq mshr miss latency
system.iocache.WriteInvalidateReq_avg_mshr_miss_latency::tsunami.ide 70089.037938                       # average WriteInvalidateReq mshr miss latency
system.iocache.WriteInvalidateReq_avg_mshr_miss_latency::total 70089.037938                       # average WriteInvalidateReq mshr miss latency
system.iocache.demand_avg_mshr_miss_latency::tsunami.ide 123580.257143                       # average overall mshr miss latency
system.iocache.demand_avg_mshr_miss_latency::total 123580.257143                       # average overall mshr miss latency
system.iocache.overall_avg_mshr_miss_latency::tsunami.ide 123580.257143                       # average overall mshr miss latency
system.iocache.overall_avg_mshr_miss_latency::total 123580.257143                       # average overall mshr miss latency
system.iocache.no_allocate_misses                   0                       # Number of misses that were no-allocate
system.disk0.dma_read_full_pages                    0                       # Number of full page size DMA reads (not PRD).
system.disk0.dma_read_bytes                      4096                       # Number of bytes transfered via DMA reads (not PRD).
system.disk0.dma_read_txs                           1                       # Number of DMA read transactions (not PRD).
system.disk0.dma_write_full_pages                 326                       # Number of full page size DMA writes.
system.disk0.dma_write_bytes                  2824192                       # Number of bytes transfered via DMA writes.
system.disk0.dma_write_txs                        365                       # Number of DMA write transactions.
system.disk2.dma_read_full_pages                    0                       # Number of full page size DMA reads (not PRD).
system.disk2.dma_read_bytes                         0                       # Number of bytes transfered via DMA reads (not PRD).
system.disk2.dma_read_txs                           0                       # Number of DMA read transactions (not PRD).
system.disk2.dma_write_full_pages                   1                       # Number of full page size DMA writes.
system.disk2.dma_write_bytes                     8192                       # Number of bytes transfered via DMA writes.
system.disk2.dma_write_txs                          1                       # Number of DMA write transactions.
system.cpu0.branchPred.lookups               18984459                       # Number of BP lookups
system.cpu0.branchPred.condPredicted         16054510                       # Number of conditional branches predicted
system.cpu0.branchPred.condIncorrect           339225                       # Number of conditional branches incorrect
system.cpu0.branchPred.BTBLookups            11644963                       # Number of BTB lookups
system.cpu0.branchPred.BTBHits                7841069                       # Number of BTB hits
system.cpu0.branchPred.BTBCorrect                   0                       # Number of correct BTB predictions (this stat may not work properly.
system.cpu0.branchPred.BTBHitPct            67.334426                       # BTB Hit Percentage
system.cpu0.branchPred.usedRAS                1233032                       # Number of times the RAS was used to get a target.
system.cpu0.branchPred.RASInCorrect             20298                       # Number of incorrect RAS predictions.
system.cpu_voltage_domain.voltage                   1                       # Voltage in Volts
system.cpu_clk_domain.clock                       500                       # Clock period in ticks
system.cpu0.dtb.fetch_hits                          0                       # ITB hits
system.cpu0.dtb.fetch_misses                        0                       # ITB misses
system.cpu0.dtb.fetch_acv                           0                       # ITB acv
system.cpu0.dtb.fetch_accesses                      0                       # ITB accesses
system.cpu0.dtb.read_hits                    12838187                       # DTB read hits
system.cpu0.dtb.read_misses                     45749                       # DTB read misses
system.cpu0.dtb.read_acv                           35                       # DTB read access violations
system.cpu0.dtb.read_accesses                  412439                       # DTB read accesses
system.cpu0.dtb.write_hits                    5351508                       # DTB write hits
system.cpu0.dtb.write_misses                     7634                       # DTB write misses
system.cpu0.dtb.write_acv                          93                       # DTB write access violations
system.cpu0.dtb.write_accesses                 102856                       # DTB write accesses
system.cpu0.dtb.data_hits                    18189695                       # DTB hits
system.cpu0.dtb.data_misses                     53383                       # DTB misses
system.cpu0.dtb.data_acv                          128                       # DTB access violations
system.cpu0.dtb.data_accesses                  515295                       # DTB accesses
system.cpu0.itb.fetch_hits                     969637                       # ITB hits
system.cpu0.itb.fetch_misses                     5636                       # ITB misses
system.cpu0.itb.fetch_acv                         117                       # ITB acv
system.cpu0.itb.fetch_accesses                 975273                       # ITB accesses
system.cpu0.itb.read_hits                           0                       # DTB read hits
system.cpu0.itb.read_misses                         0                       # DTB read misses
system.cpu0.itb.read_acv                            0                       # DTB read access violations
system.cpu0.itb.read_accesses                       0                       # DTB read accesses
system.cpu0.itb.write_hits                          0                       # DTB write hits
system.cpu0.itb.write_misses                        0                       # DTB write misses
system.cpu0.itb.write_acv                           0                       # DTB write access violations
system.cpu0.itb.write_accesses                      0                       # DTB write accesses
system.cpu0.itb.data_hits                           0                       # DTB hits
system.cpu0.itb.data_misses                         0                       # DTB misses
system.cpu0.itb.data_acv                            0                       # DTB access violations
system.cpu0.itb.data_accesses                       0                       # DTB accesses
system.cpu0.numCycles                       270894148                       # number of cpu cycles simulated
system.cpu0.numWorkItemsStarted                     0                       # number of work items this cpu started
system.cpu0.numWorkItemsCompleted                   0                       # number of work items this cpu completed
system.cpu0.fetch.icacheStallCycles          32487876                       # Number of cycles fetch is stalled on an Icache miss
system.cpu0.fetch.Insts                      86513934                       # Number of instructions fetch has processed
system.cpu0.fetch.Branches                   18984459                       # Number of branches that fetch encountered
system.cpu0.fetch.predictedBranches           9074101                       # Number of branches that fetch has predicted taken
system.cpu0.fetch.Cycles                    189850409                       # Number of cycles fetch has run and was not squashing or blocked
system.cpu0.fetch.SquashCycles                1002654                       # Number of cycles fetch has spent squashing
system.cpu0.fetch.TlbCycles                       432                       # Number of cycles fetch has spent waiting for tlb
system.cpu0.fetch.MiscStallCycles               79578                       # Number of cycles fetch has spent waiting on interrupts, or bad addresses, or out of MSHRs
system.cpu0.fetch.PendingTrapStallCycles       359194                       # Number of stall cycles due to pending traps
system.cpu0.fetch.PendingQuiesceStallCycles       454424                       # Number of stall cycles due to pending quiesce instructions
system.cpu0.fetch.IcacheWaitRetryStallCycles          448                       # Number of stall cycles due to full MSHR
system.cpu0.fetch.CacheLines                 10838678                       # Number of cache lines fetched
system.cpu0.fetch.IcacheSquashes               244061                       # Number of outstanding Icache misses that were squashed
system.cpu0.fetch.ItlbSquashes                      3                       # Number of outstanding ITLB misses that were squashed
system.cpu0.fetch.rateDist::samples         223733688                       # Number of instructions fetched each cycle (Total)
system.cpu0.fetch.rateDist::mean             0.386683                       # Number of instructions fetched each cycle (Total)
system.cpu0.fetch.rateDist::stdev            1.488928                       # Number of instructions fetched each cycle (Total)
system.cpu0.fetch.rateDist::underflows              0      0.00%      0.00% # Number of instructions fetched each cycle (Total)
system.cpu0.fetch.rateDist::0               205401189     91.81%     91.81% # Number of instructions fetched each cycle (Total)
system.cpu0.fetch.rateDist::1                 2370100      1.06%     92.87% # Number of instructions fetched each cycle (Total)
system.cpu0.fetch.rateDist::2                 2564397      1.15%     94.01% # Number of instructions fetched each cycle (Total)
system.cpu0.fetch.rateDist::3                 1479925      0.66%     94.67% # Number of instructions fetched each cycle (Total)
system.cpu0.fetch.rateDist::4                 3721819      1.66%     96.34% # Number of instructions fetched each cycle (Total)
system.cpu0.fetch.rateDist::5                  779340      0.35%     96.68% # Number of instructions fetched each cycle (Total)
system.cpu0.fetch.rateDist::6                 1474240      0.66%     97.34% # Number of instructions fetched each cycle (Total)
system.cpu0.fetch.rateDist::7                  595575      0.27%     97.61% # Number of instructions fetched each cycle (Total)
system.cpu0.fetch.rateDist::8                 5347103      2.39%    100.00% # Number of instructions fetched each cycle (Total)
system.cpu0.fetch.rateDist::overflows               0      0.00%    100.00% # Number of instructions fetched each cycle (Total)
system.cpu0.fetch.rateDist::min_value               0                       # Number of instructions fetched each cycle (Total)
system.cpu0.fetch.rateDist::max_value               8                       # Number of instructions fetched each cycle (Total)
system.cpu0.fetch.rateDist::total           223733688                       # Number of instructions fetched each cycle (Total)
system.cpu0.fetch.branchRate                 0.070081                       # Number of branch fetches per cycle
system.cpu0.fetch.rate                       0.319364                       # Number of inst fetches per cycle
system.cpu0.decode.IdleCycles                22797657                       # Number of cycles decode is idle
system.cpu0.decode.BlockedCycles            187730569                       # Number of cycles decode is blocked
system.cpu0.decode.RunCycles                  9252450                       # Number of cycles decode is running
system.cpu0.decode.UnblockCycles              3488246                       # Number of cycles decode is unblocking
system.cpu0.decode.SquashCycles                464765                       # Number of cycles decode is squashing
system.cpu0.decode.BranchResolved              567416                       # Number of times decode resolved a branch
system.cpu0.decode.BranchMispred                36862                       # Number of times decode detected a branch misprediction
system.cpu0.decode.DecodedInsts              79058451                       # Number of instructions handled by decode
system.cpu0.decode.SquashedInsts               105274                       # Number of squashed instructions handled by decode
system.cpu0.rename.SquashCycles                464765                       # Number of cycles rename is squashing
system.cpu0.rename.IdleCycles                24162283                       # Number of cycles rename is idle
system.cpu0.rename.BlockCycles              148457055                       # Number of cycles rename is blocking
system.cpu0.rename.serializeStallCycles      24815505                       # count of cycles rename stalled for serializing inst
system.cpu0.rename.RunCycles                 11074705                       # Number of cycles rename is running
system.cpu0.rename.UnblockCycles             14759373                       # Number of cycles rename is unblocking
system.cpu0.rename.RenamedInsts              77128910                       # Number of instructions processed by rename
system.cpu0.rename.ROBFullEvents               161083                       # Number of times rename has blocked due to ROB full
system.cpu0.rename.IQFullEvents               7819754                       # Number of times rename has blocked due to IQ full
system.cpu0.rename.LQFullEvents               1472939                       # Number of times rename has blocked due to LQ full
system.cpu0.rename.SQFullEvents               3860973                       # Number of times rename has blocked due to SQ full
system.cpu0.rename.RenamedOperands           56565323                       # Number of destination operands rename has renamed
system.cpu0.rename.RenameLookups             99585977                       # Number of register rename lookups that rename has made
system.cpu0.rename.int_rename_lookups        99495807                       # Number of integer rename lookups
system.cpu0.rename.fp_rename_lookups            83278                       # Number of floating rename lookups
system.cpu0.rename.CommittedMaps             50477383                       # Number of HB maps that are committed
system.cpu0.rename.UndoneMaps                 6087940                       # Number of HB maps that are undone due to squashing
system.cpu0.rename.serializingInsts           1107994                       # count of serializing insts renamed
system.cpu0.rename.tempSerializingInsts        205527                       # count of temporary serializing insts renamed
system.cpu0.rename.skidInsts                 22883788                       # count of insts added to the skid buffer
system.cpu0.memDep0.insertedLoads            12956642                       # Number of loads inserted to the mem dependence unit.
system.cpu0.memDep0.insertedStores            5628876                       # Number of stores inserted to the mem dependence unit.
system.cpu0.memDep0.conflictingLoads          1543723                       # Number of conflicting loads.
system.cpu0.memDep0.conflictingStores         1027621                       # Number of conflicting stores.
system.cpu0.iq.iqInstsAdded                  72696534                       # Number of instructions added to the IQ (excludes non-spec)
system.cpu0.iq.iqNonSpecInstsAdded            1593931                       # Number of non-speculative instructions added to the IQ
system.cpu0.iq.iqInstsIssued                 71272863                       # Number of instructions issued
system.cpu0.iq.iqSquashedInstsIssued            65442                       # Number of squashed instructions issued
system.cpu0.iq.iqSquashedInstsExamined        7534459                       # Number of squashed instructions iterated over during squash; mainly for profiling
system.cpu0.iq.iqSquashedOperandsExamined      3830157                       # Number of squashed operands that are examined and possibly removed from graph
system.cpu0.iq.iqSquashedNonSpecRemoved        989246                       # Number of squashed non-spec instructions that were removed
system.cpu0.iq.issued_per_cycle::samples    223733688                       # Number of insts issued each cycle
system.cpu0.iq.issued_per_cycle::mean        0.318561                       # Number of insts issued each cycle
system.cpu0.iq.issued_per_cycle::stdev       0.994574                       # Number of insts issued each cycle
system.cpu0.iq.issued_per_cycle::underflows            0      0.00%      0.00% # Number of insts issued each cycle
[...]
system.cpu0.kern.ipl_used::31                0.865979                       # fraction of swpipl calls that actually changed the ipl
system.cpu0.kern.ipl_used::total             0.928767                       # fraction of swpipl calls that actually changed the ipl
system.cpu0.kern.syscall::2                         1     50.00%     50.00% # number of syscalls executed
system.cpu0.kern.syscall::3                         1     50.00%    100.00% # number of syscalls executed
system.cpu0.kern.syscall::total                     2                       # number of syscalls executed
system.cpu0.kern.callpal::wripir                    1      0.26%      0.26% # number of callpals executed
system.cpu0.kern.callpal::swpctx                   12      3.08%      3.33% # number of callpals executed
system.cpu0.kern.callpal::tbi                       1      0.26%      3.59% # number of callpals executed
system.cpu0.kern.callpal::swpipl                  343     87.95%     91.54% # number of callpals executed
system.cpu0.kern.callpal::rdps                      2      0.51%     92.05% # number of callpals executed
system.cpu0.kern.callpal::rdusp                     1      0.26%     92.31% # number of callpals executed
system.cpu0.kern.callpal::rti                      20      5.13%     97.44% # number of callpals executed
system.cpu0.kern.callpal::callsys                  10      2.56%    100.00% # number of callpals executed
system.cpu0.kern.callpal::total                   390                       # number of callpals executed
system.cpu0.kern.mode_switch::kernel               33                       # number of protection mode switches
system.cpu0.kern.mode_switch::user                 18                       # number of protection mode switches
system.cpu0.kern.mode_switch::idle                  0                       # number of protection mode switches
system.cpu0.kern.mode_good::kernel                 19                      
system.cpu0.kern.mode_good::user                   18                      
system.cpu0.kern.mode_good::idle                    0                      
system.cpu0.kern.mode_switch_good::kernel     0.575758                       # fraction of useful protection mode switches
system.cpu0.kern.mode_switch_good::user             1                       # fraction of useful protection mode switches
system.cpu0.kern.mode_switch_good::idle           nan                       # fraction of useful protection mode switches
system.cpu0.kern.mode_switch_good::total     0.725490                       # fraction of useful protection mode switches
system.cpu0.kern.mode_ticks::kernel         195592500     71.60%     71.60% # number of ticks spent at the given mode
system.cpu0.kern.mode_ticks::user            77565000     28.40%    100.00% # number of ticks spent at the given mode
system.cpu0.kern.mode_ticks::idle                   0      0.00%    100.00% # number of ticks spent at the given mode
system.cpu0.kern.swap_context                      12                       # number of times the context was actually changed
system.cpu1.kern.inst.arm                           0                       # number of arm instructions executed
system.cpu1.kern.inst.quiesce                       3                       # number of quiesce instructions executed
system.cpu1.kern.inst.hwrei                       816                       # number of hwrei instructions executed
system.cpu1.kern.ipl_count::0                     105     45.45%     45.45% # number of times we switched to this ipl
system.cpu1.kern.ipl_count::22                      1      0.43%     45.89% # number of times we switched to this ipl
system.cpu1.kern.ipl_count::30                      3      1.30%     47.19% # number of times we switched to this ipl
system.cpu1.kern.ipl_count::31                    122     52.81%    100.00% # number of times we switched to this ipl
system.cpu1.kern.ipl_count::total                 231                       # number of times we switched to this ipl
system.cpu1.kern.ipl_good::0                      105     49.30%     49.30% # number of times we switched to this ipl from a different ipl
system.cpu1.kern.ipl_good::22                       1      0.47%     49.77% # number of times we switched to this ipl from a different ipl
system.cpu1.kern.ipl_good::30                       3      1.41%     51.17% # number of times we switched to this ipl from a different ipl
system.cpu1.kern.ipl_good::31                     104     48.83%    100.00% # number of times we switched to this ipl from a different ipl
system.cpu1.kern.ipl_good::total                  213                       # number of times we switched to this ipl from a different ipl
system.cpu1.kern.ipl_ticks::0               949393000     96.17%     96.17% # number of cycles we spent at this ipl
system.cpu1.kern.ipl_ticks::22                 568500      0.06%     96.22% # number of cycles we spent at this ipl
system.cpu1.kern.ipl_ticks::30                2930000      0.30%     96.52% # number of cycles we spent at this ipl
system.cpu1.kern.ipl_ticks::31               34350500      3.48%    100.00% # number of cycles we spent at this ipl
system.cpu1.kern.ipl_ticks::total           987242000                       # number of cycles we spent at this ipl
system.cpu1.kern.ipl_used::0                        1                       # fraction of swpipl calls that actually changed the ipl
system.cpu1.kern.ipl_used::22                       1                       # fraction of swpipl calls that actually changed the ipl
system.cpu1.kern.ipl_used::30                       1                       # fraction of swpipl calls that actually changed the ipl
system.cpu1.kern.ipl_used::31                0.852459                       # fraction of swpipl calls that actually changed the ipl
system.cpu1.kern.ipl_used::total             0.922078                       # fraction of swpipl calls that actually changed the ipl
system.cpu1.kern.syscall::6                         1     33.33%     33.33% # number of syscalls executed
system.cpu1.kern.syscall::48                        1     33.33%     66.67% # number of syscalls executed
system.cpu1.kern.syscall::59                        1     33.33%    100.00% # number of syscalls executed
system.cpu1.kern.syscall::total                     3                       # number of syscalls executed
system.cpu1.kern.callpal::wripir                    1      0.33%      0.33% # number of callpals executed
system.cpu1.kern.callpal::swpctx                   58     19.08%     19.41% # number of callpals executed
system.cpu1.kern.callpal::tbi                       4      1.32%     20.72% # number of callpals executed
system.cpu1.kern.callpal::swpipl                  158     51.97%     72.70% # number of callpals executed
system.cpu1.kern.callpal::rdps                      3      0.99%     73.68% # number of callpals executed
system.cpu1.kern.callpal::rti                      70     23.03%     96.71% # number of callpals executed
system.cpu1.kern.callpal::callsys                   9      2.96%     99.67% # number of callpals executed
system.cpu1.kern.callpal::imb                       1      0.33%    100.00% # number of callpals executed
system.cpu1.kern.callpal::total                   304                       # number of callpals executed
system.cpu1.kern.mode_switch::kernel              123                       # number of protection mode switches
system.cpu1.kern.mode_switch::user                 67                       # number of protection mode switches
system.cpu1.kern.mode_switch::idle                  5                       # number of protection mode switches
system.cpu1.kern.mode_good::kernel                 68                      
system.cpu1.kern.mode_good::user                   67                      
system.cpu1.kern.mode_good::idle                    1                      
system.cpu1.kern.mode_switch_good::kernel     0.552846                       # fraction of useful protection mode switches
system.cpu1.kern.mode_switch_good::user             1                       # fraction of useful protection mode switches
system.cpu1.kern.mode_switch_good::idle      0.200000                       # fraction of useful protection mode switches
system.cpu1.kern.mode_switch_good::total     0.697436                       # fraction of useful protection mode switches
system.cpu1.kern.mode_ticks::kernel         148019000      7.01%      7.01% # number of ticks spent at the given mode
system.cpu1.kern.mode_ticks::user            51223000      2.42%      9.43% # number of ticks spent at the given mode
system.cpu1.kern.mode_ticks::idle          1913693000     90.57%    100.00% # number of ticks spent at the given mode
system.cpu1.kern.swap_context                      58                       # number of times the context was actually changed
system.cpu2.kern.inst.arm                           0                       # number of arm instructions executed
system.cpu2.kern.inst.quiesce                       0                       # number of quiesce instructions executed
system.cpu2.kern.inst.hwrei                      1215                       # number of hwrei instructions executed
system.cpu2.kern.ipl_count::0                     248     49.21%     49.21% # number of times we switched to this ipl
system.cpu2.kern.ipl_count::22                      1      0.20%     49.40% # number of times we switched to this ipl
system.cpu2.kern.ipl_count::30                      1      0.20%     49.60% # number of times we switched to this ipl
system.cpu2.kern.ipl_count::31                    254     50.40%    100.00% # number of times we switched to this ipl
system.cpu2.kern.ipl_count::total                 504                       # number of times we switched to this ipl
system.cpu2.kern.ipl_good::0                      246     49.90%     49.90% # number of times we switched to this ipl from a different ipl
system.cpu2.kern.ipl_good::22                       1      0.20%     50.10% # number of times we switched to this ipl from a different ipl
system.cpu2.kern.ipl_good::30                       1      0.20%     50.30% # number of times we switched to this ipl from a different ipl
system.cpu2.kern.ipl_good::31                     245     49.70%    100.00% # number of times we switched to this ipl from a different ipl
system.cpu2.kern.ipl_good::total                  493                       # number of times we switched to this ipl from a different ipl
system.cpu2.kern.ipl_ticks::0              1072888500     95.68%     95.68% # number of cycles we spent at this ipl
system.cpu2.kern.ipl_ticks::22                1124500      0.10%     95.78% # number of cycles we spent at this ipl
system.cpu2.kern.ipl_ticks::30                 423500      0.04%     95.82% # number of cycles we spent at this ipl
system.cpu2.kern.ipl_ticks::31               46915500      4.18%    100.00% # number of cycles we spent at this ipl
system.cpu2.kern.ipl_ticks::total          1121352000                       # number of cycles we spent at this ipl
system.cpu2.kern.ipl_used::0                 0.991935                       # fraction of swpipl calls that actually changed the ipl
system.cpu2.kern.ipl_used::22                       1                       # fraction of swpipl calls that actually changed the ipl
system.cpu2.kern.ipl_used::30                       1                       # fraction of swpipl calls that actually changed the ipl
system.cpu2.kern.ipl_used::31                0.964567                       # fraction of swpipl calls that actually changed the ipl
system.cpu2.kern.ipl_used::total             0.978175                       # fraction of swpipl calls that actually changed the ipl
system.cpu2.kern.syscall::3                         1      8.33%      8.33% # number of syscalls executed
system.cpu2.kern.syscall::6                         1      8.33%     16.67% # number of syscalls executed
system.cpu2.kern.syscall::17                        1      8.33%     25.00% # number of syscalls executed
system.cpu2.kern.syscall::33                        1      8.33%     33.33% # number of syscalls executed
system.cpu2.kern.syscall::45                        3     25.00%     58.33% # number of syscalls executed
system.cpu2.kern.syscall::71                        4     33.33%     91.67% # number of syscalls executed
system.cpu2.kern.syscall::74                        1      8.33%    100.00% # number of syscalls executed
system.cpu2.kern.syscall::total                    12                       # number of syscalls executed
system.cpu2.kern.callpal::wripir                    3      0.52%      0.52% # number of callpals executed
system.cpu2.kern.callpal::swpctx                   53      9.15%      9.67% # number of callpals executed
system.cpu2.kern.callpal::swpipl                  401     69.26%     78.93% # number of callpals executed
system.cpu2.kern.callpal::rdps                      3      0.52%     79.45% # number of callpals executed
system.cpu2.kern.callpal::wrusp                     1      0.17%     79.62% # number of callpals executed
system.cpu2.kern.callpal::rti                     101     17.44%     97.06% # number of callpals executed
system.cpu2.kern.callpal::callsys                  15      2.59%     99.65% # number of callpals executed
system.cpu2.kern.callpal::imb                       2      0.35%    100.00% # number of callpals executed
system.cpu2.kern.callpal::total                   579                       # number of callpals executed
system.cpu2.kern.mode_switch::kernel              153                       # number of protection mode switches
system.cpu2.kern.mode_switch::user                 98                       # number of protection mode switches
system.cpu2.kern.mode_switch::idle                  0                       # number of protection mode switches
system.cpu2.kern.mode_good::kernel                 97                      
system.cpu2.kern.mode_good::user                   98                      
system.cpu2.kern.mode_good::idle                    0                      
system.cpu2.kern.mode_switch_good::kernel     0.633987                       # fraction of useful protection mode switches
system.cpu2.kern.mode_switch_good::user             1                       # fraction of useful protection mode switches
system.cpu2.kern.mode_switch_good::idle           nan                       # fraction of useful protection mode switches
system.cpu2.kern.mode_switch_good::total     0.776892                       # fraction of useful protection mode switches
system.cpu2.kern.mode_ticks::kernel        1773748000     90.87%     90.87% # number of ticks spent at the given mode
system.cpu2.kern.mode_ticks::user           178246500      9.13%    100.00% # number of ticks spent at the given mode
system.cpu2.kern.mode_ticks::idle                   0      0.00%    100.00% # number of ticks spent at the given mode
system.cpu2.kern.swap_context                      53                       # number of times the context was actually changed
system.cpu3.kern.inst.arm                           0                       # number of arm instructions executed
system.cpu3.kern.inst.quiesce                       2                       # number of quiesce instructions executed
system.cpu3.kern.inst.hwrei                        33                       # number of hwrei instructions executed
system.cpu3.kern.ipl_count::0                      11     35.48%     35.48% # number of times we switched to this ipl
system.cpu3.kern.ipl_count::22                      1      3.23%     38.71% # number of times we switched to this ipl
system.cpu3.kern.ipl_count::30                      1      3.23%     41.94% # number of times we switched to this ipl
system.cpu3.kern.ipl_count::31                     18     58.06%    100.00% # number of times we switched to this ipl
system.cpu3.kern.ipl_count::total                  31                       # number of times we switched to this ipl
system.cpu3.kern.ipl_good::0                       11     47.83%     47.83% # number of times we switched to this ipl from a different ipl
system.cpu3.kern.ipl_good::22                       1      4.35%     52.17% # number of times we switched to this ipl from a different ipl
system.cpu3.kern.ipl_good::30                       1      4.35%     56.52% # number of times we switched to this ipl from a different ipl
system.cpu3.kern.ipl_good::31                      10     43.48%    100.00% # number of times we switched to this ipl from a different ipl
system.cpu3.kern.ipl_good::total                   23                       # number of times we switched to this ipl from a different ipl
system.cpu3.kern.ipl_ticks::0               971261500     99.48%     99.48% # number of cycles we spent at this ipl
system.cpu3.kern.ipl_ticks::22                 299500      0.03%     99.52% # number of cycles we spent at this ipl
system.cpu3.kern.ipl_ticks::30                 792500      0.08%     99.60% # number of cycles we spent at this ipl
system.cpu3.kern.ipl_ticks::31                3940000      0.40%    100.00% # number of cycles we spent at this ipl
system.cpu3.kern.ipl_ticks::total           976293500                       # number of cycles we spent at this ipl
system.cpu3.kern.ipl_used::0                        1                       # fraction of swpipl calls that actually changed the ipl
system.cpu3.kern.ipl_used::22                       1                       # fraction of swpipl calls that actually changed the ipl
system.cpu3.kern.ipl_used::30                       1                       # fraction of swpipl calls that actually changed the ipl
system.cpu3.kern.ipl_used::31                0.555556                       # fraction of swpipl calls that actually changed the ipl
system.cpu3.kern.ipl_used::total             0.741935                       # fraction of swpipl calls that actually changed the ipl
system.cpu3.kern.callpal::swpipl                   27     87.10%     87.10% # number of callpals executed
system.cpu3.kern.callpal::rdps                      2      6.45%     93.55% # number of callpals executed
system.cpu3.kern.callpal::rti                       2      6.45%    100.00% # number of callpals executed
system.cpu3.kern.callpal::total                    31                       # number of callpals executed
system.cpu3.kern.mode_switch::kernel                2                       # number of protection mode switches
system.cpu3.kern.mode_switch::user                  0                       # number of protection mode switches
system.cpu3.kern.mode_switch::idle                  0                       # number of protection mode switches
system.cpu3.kern.mode_good::kernel                  0                      
system.cpu3.kern.mode_good::user                    0                      
system.cpu3.kern.mode_good::idle                    0                      
system.cpu3.kern.mode_switch_good::kernel            0                       # fraction of useful protection mode switches
system.cpu3.kern.mode_switch_good::user           nan                       # fraction of useful protection mode switches
system.cpu3.kern.mode_switch_good::idle           nan                       # fraction of useful protection mode switches
system.cpu3.kern.mode_switch_good::total            0                       # fraction of useful protection mode switches
system.cpu3.kern.mode_ticks::kernel                 0                       # number of ticks spent at the given mode
system.cpu3.kern.mode_ticks::user                   0                       # number of ticks spent at the given mode
system.cpu3.kern.mode_ticks::idle                   0                       # number of ticks spent at the given mode
system.cpu3.kern.swap_context                       0                       # number of times the context was actually changed

---------- End Simulation Statistics   ----------
