
---------- Begin Simulation Statistics ----------
sim_seconds                                  2.481108                       # Number of seconds simulated
sim_ticks                                2481107878000                       # Number of ticks simulated
final_tick                               2481107878000                       # Number of ticks from beginning of simulation (restored from checkpoints and never reset)
sim_freq                                 1000000000000                       # Frequency of simulated ticks
host_inst_rate                                 200114                       # Simulator instruction rate (inst/s)
host_op_rate                                   200114                       # Simulator op (including micro ops) rate (op/s)
host_tick_rate                             5129133391                       # Simulator tick rate (ticks/s)
host_mem_usage                                 462316                       # Number of bytes of host memory used
host_seconds                                   483.73                       # Real time elapsed on the host
sim_insts                                    96800828                       # Number of instructions simulated
sim_ops                                      96800828                       # Number of ops (including micro ops) simulated
system.voltage_domain.voltage                       1                       # Voltage in Volts
system.clk_domain.clock                          1000                       # Clock period in ticks
system.mem_ctrls.bytes_read::cpu0.inst       59509888                       # Number of bytes read from this memory
system.mem_ctrls.bytes_read::cpu0.data      165346432                       # Number of bytes read from this memory
system.mem_ctrls.bytes_read::tsunami.ide         4160                       # Number of bytes read from this memory
system.mem_ctrls.bytes_read::cpu1.inst       41155328                       # Number of bytes read from this memory
system.mem_ctrls.bytes_read::cpu1.data       14218368                       # Number of bytes read from this memory
system.mem_ctrls.bytes_read::total          280234176                       # Number of bytes read from this memory
system.mem_ctrls.bytes_inst_read::cpu0.inst     59509888                       # Number of instructions bytes read from this memory
system.mem_ctrls.bytes_inst_read::cpu1.inst     41155328                       # Number of instructions bytes read from this memory
system.mem_ctrls.bytes_inst_read::total     100665216                       # Number of instructions bytes read from this memory
system.mem_ctrls.bytes_written::writebacks     28046272                       # Number of bytes written to this memory
system.mem_ctrls.bytes_written::tsunami.ide      2832384                       # Number of bytes written to this memory
system.mem_ctrls.bytes_written::total        30878656                       # Number of bytes written to this memory
system.mem_ctrls.num_reads::cpu0.inst          929842                       # Number of read requests responded to by this memory
system.mem_ctrls.num_reads::cpu0.data         2583538                       # Number of read requests responded to by this memory
system.mem_ctrls.num_reads::tsunami.ide            65                       # Number of read requests responded to by this memory
system.mem_ctrls.num_reads::cpu1.inst          643052                       # Number of read requests responded to by this memory
system.mem_ctrls.num_reads::cpu1.data          222162                       # Number of read requests responded to by this memory
system.mem_ctrls.num_reads::total             4378659                       # Number of read requests responded to by this memory
system.mem_ctrls.num_writes::writebacks        438223                       # Number of write requests responded to by this memory
system.mem_ctrls.num_writes::tsunami.ide        44256                       # Number of write requests responded to by this memory
system.mem_ctrls.num_writes::total             482479                       # Number of write requests responded to by this memory
system.mem_ctrls.bw_read::cpu0.inst          23985208                       # Total read bandwidth from this memory (bytes/s)
system.mem_ctrls.bw_read::cpu0.data          66642178                       # Total read bandwidth from this memory (bytes/s)
system.mem_ctrls.bw_read::tsunami.ide            1677                       # Total read bandwidth from this memory (bytes/s)
system.mem_ctrls.bw_read::cpu1.inst          16587480                       # Total read bandwidth from this memory (bytes/s)
system.mem_ctrls.bw_read::cpu1.data           5730653                       # Total read bandwidth from this memory (bytes/s)
system.mem_ctrls.bw_read::total             112947195                       # Total read bandwidth from this memory (bytes/s)
system.mem_ctrls.bw_inst_read::cpu0.inst     23985208                       # Instruction read bandwidth from this memory (bytes/s)
system.mem_ctrls.bw_inst_read::cpu1.inst     16587480                       # Instruction read bandwidth from this memory (bytes/s)
system.mem_ctrls.bw_inst_read::total         40572688                       # Instruction read bandwidth from this memory (bytes/s)
system.mem_ctrls.bw_write::writebacks        11303931                       # Write bandwidth from this memory (bytes/s)
system.mem_ctrls.bw_write::tsunami.ide        1141580                       # Write bandwidth from this memory (bytes/s)
system.mem_ctrls.bw_write::total             12445511                       # Write bandwidth from this memory (bytes/s)
system.mem_ctrls.bw_total::writebacks        11303931                       # Total bandwidth to/from this memory (bytes/s)
system.mem_ctrls.bw_total::cpu0.inst         23985208                       # Total bandwidth to/from this memory (bytes/s)
system.mem_ctrls.bw_total::cpu0.data         66642178                       # Total bandwidth to/from this memory (bytes/s)
system.mem_ctrls.bw_total::tsunami.ide        1143257                       # Total bandwidth to/from this memory (bytes/s)
system.mem_ctrls.bw_total::cpu1.inst         16587480                       # Total bandwidth to/from this memory (bytes/s)
system.mem_ctrls.bw_total::cpu1.data          5730653                       # Total bandwidth to/from this memory (bytes/s)
system.mem_ctrls.bw_total::total            125392707                       # Total bandwidth to/from this memory (bytes/s)
system.mem_ctrls.readReqs                     4378661                       # Number of read requests accepted
system.mem_ctrls.writeReqs                     482479                       # Number of write requests accepted
system.mem_ctrls.readBursts                   4378661                       # Number of DRAM read bursts, including those serviced by the write queue
system.mem_ctrls.writeBursts                   482479                       # Number of DRAM write bursts, including those merged in the write queue
system.mem_ctrls.bytesReadDRAM              277944448                       # Total number of bytes read from DRAM
system.mem_ctrls.bytesReadWrQ                 2289856                       # Total number of bytes read from write queue
system.mem_ctrls.bytesWritten                30638784                       # Total number of bytes written to DRAM
system.mem_ctrls.bytesReadSys               280234304                       # Total read bytes from the system interface side
system.mem_ctrls.bytesWrittenSys             30878656                       # Total written bytes from the system interface side
system.mem_ctrls.servicedByWrQ                  35779                       # Number of DRAM read bursts serviced by the write queue
system.mem_ctrls.mergedWrBursts                  3725                       # Number of DRAM write bursts merged with an existing one
system.mem_ctrls.neitherReadNorWriteReqs        19551                       # Number of requests that are neither read nor write
system.mem_ctrls.perBankRdBursts::0            349168                       # Per bank write bursts
system.mem_ctrls.perBankRdBursts::1            256332                       # Per bank write bursts
system.mem_ctrls.perBankRdBursts::2            229084                       # Per bank write bursts
system.mem_ctrls.perBankRdBursts::3            236572                       # Per bank write bursts
system.mem_ctrls.perBankRdBursts::4            307649                       # Per bank write bursts
system.mem_ctrls.perBankRdBursts::5            260319                       # Per bank write bursts
system.mem_ctrls.perBankRdBursts::6            259535                       # Per bank write bursts
system.mem_ctrls.perBankRdBursts::7            307420                       # Per bank write bursts
system.mem_ctrls.perBankRdBursts::8            345327                       # Per bank write bursts
system.mem_ctrls.perBankRdBursts::9            253621                       # Per bank write bursts
system.mem_ctrls.perBankRdBursts::10           217734                       # Per bank write bursts
system.mem_ctrls.perBankRdBursts::11           298971                       # Per bank write bursts
system.mem_ctrls.perBankRdBursts::12           283269                       # Per bank write bursts
system.mem_ctrls.perBankRdBursts::13           293548                       # Per bank write bursts
system.mem_ctrls.perBankRdBursts::14           241382                       # Per bank write bursts
system.mem_ctrls.perBankRdBursts::15           202951                       # Per bank write bursts
system.mem_ctrls.perBankWrBursts::0             56156                       # Per bank write bursts
system.mem_ctrls.perBankWrBursts::1             29380                       # Per bank write bursts
system.mem_ctrls.perBankWrBursts::2             21572                       # Per bank write bursts
system.mem_ctrls.perBankWrBursts::3             19870                       # Per bank write bursts
system.mem_ctrls.perBankWrBursts::4             27550                       # Per bank write bursts
system.mem_ctrls.perBankWrBursts::5             27056                       # Per bank write bursts
system.mem_ctrls.perBankWrBursts::6             23518                       # Per bank write bursts
system.mem_ctrls.perBankWrBursts::7             29886                       # Per bank write bursts
system.mem_ctrls.perBankWrBursts::8             26257                       # Per bank write bursts
system.mem_ctrls.perBankWrBursts::9             24660                       # Per bank write bursts
system.mem_ctrls.perBankWrBursts::10            24543                       # Per bank write bursts
system.mem_ctrls.perBankWrBursts::11            52022                       # Per bank write bursts
system.mem_ctrls.perBankWrBursts::12            28024                       # Per bank write bursts
system.mem_ctrls.perBankWrBursts::13            25364                       # Per bank write bursts
system.mem_ctrls.perBankWrBursts::14            27432                       # Per bank write bursts
system.mem_ctrls.perBankWrBursts::15            35441                       # Per bank write bursts
system.mem_ctrls.numRdRetry                         0                       # Number of times read queue was full causing retry
system.mem_ctrls.numWrRetry                        33                       # Number of times write queue was full causing retry
system.mem_ctrls.totGap                  2481107861000                       # Total gap between requests
system.mem_ctrls.readPktSize::0                     0                       # Read request sizes (log2)
system.mem_ctrls.readPktSize::1                     0                       # Read request sizes (log2)
system.mem_ctrls.readPktSize::2                     0                       # Read request sizes (log2)
system.mem_ctrls.readPktSize::3                     0                       # Read request sizes (log2)
system.mem_ctrls.readPktSize::4                     0                       # Read request sizes (log2)
system.mem_ctrls.readPktSize::5                     0                       # Read request sizes (log2)
system.mem_ctrls.readPktSize::6               4378661                       # Read request sizes (log2)
system.mem_ctrls.writePktSize::0                    0                       # Write request sizes (log2)
system.mem_ctrls.writePktSize::1                    0                       # Write request sizes (log2)
system.mem_ctrls.writePktSize::2                    0                       # Write request sizes (log2)
system.mem_ctrls.writePktSize::3                    0                       # Write request sizes (log2)
system.mem_ctrls.writePktSize::4                    0                       # Write request sizes (log2)
system.mem_ctrls.writePktSize::5                    0                       # Write request sizes (log2)
system.mem_ctrls.writePktSize::6               482479                       # Write request sizes (log2)
system.mem_ctrls.rdQLenPdf::0                 3014485                       # What read queue length does an incoming req see
system.mem_ctrls.rdQLenPdf::1                 1022224                       # What read queue length does an incoming req see
system.mem_ctrls.rdQLenPdf::2                  237148                       # What read queue length does an incoming req see
system.mem_ctrls.rdQLenPdf::3                   56537                       # What read queue length does an incoming req see
system.mem_ctrls.rdQLenPdf::4                    9686                       # What read queue length does an incoming req see
system.mem_ctrls.rdQLenPdf::5                    2129                       # What read queue length does an incoming req see
system.mem_ctrls.rdQLenPdf::6                     509                       # What read queue length does an incoming req see
system.mem_ctrls.rdQLenPdf::7                     125                       # What read queue length does an incoming req see
system.mem_ctrls.rdQLenPdf::8                      14                       # What read queue length does an incoming req see
system.mem_ctrls.rdQLenPdf::9                       3                       # What read queue length does an incoming req see
system.mem_ctrls.rdQLenPdf::10                      4                       # What read queue length does an incoming req see
system.mem_ctrls.rdQLenPdf::11                      2                       # What read queue length does an incoming req see
system.mem_ctrls.rdQLenPdf::12                      3                       # What read queue length does an incoming req see
system.mem_ctrls.rdQLenPdf::13                      3                       # What read queue length does an incoming req see
system.mem_ctrls.rdQLenPdf::14                      1                       # What read queue length does an incoming req see
system.mem_ctrls.rdQLenPdf::15                      3                       # What read queue length does an incoming req see
system.mem_ctrls.rdQLenPdf::16                      2                       # What read queue length does an incoming req see
system.mem_ctrls.rdQLenPdf::17                      2                       # What read queue length does an incoming req see
system.mem_ctrls.rdQLenPdf::18                      1                       # What read queue length does an incoming req see
system.mem_ctrls.rdQLenPdf::19                      1                       # What read queue length does an incoming req see
system.mem_ctrls.rdQLenPdf::20                      0                       # What read queue length does an incoming req see
system.mem_ctrls.rdQLenPdf::21                      0                       # What read queue length does an incoming req see
system.mem_ctrls.rdQLenPdf::22                      0                       # What read queue length does an incoming req see
system.mem_ctrls.rdQLenPdf::23                      0                       # What read queue length does an incoming req see
system.mem_ctrls.rdQLenPdf::24                      0                       # What read queue length does an incoming req see
system.mem_ctrls.rdQLenPdf::25                      0                       # What read queue length does an incoming req see
system.mem_ctrls.rdQLenPdf::26                      0                       # What read queue length does an incoming req see
system.mem_ctrls.rdQLenPdf::27                      0                       # What read queue length does an incoming req see
system.mem_ctrls.rdQLenPdf::28                      0                       # What read queue length does an incoming req see
system.mem_ctrls.rdQLenPdf::29                      0                       # What read queue length does an incoming req see
system.mem_ctrls.rdQLenPdf::30                      0                       # What read queue length does an incoming req see
system.mem_ctrls.rdQLenPdf::31                      0                       # What read queue length does an incoming req see
system.mem_ctrls.wrQLenPdf::0                       1                       # What write queue length does an incoming req see
system.mem_ctrls.wrQLenPdf::1                       1                       # What write queue length does an incoming req see
system.mem_ctrls.wrQLenPdf::2                       1                       # What write queue length does an incoming req see
system.mem_ctrls.wrQLenPdf::3                       1                       # What write queue length does an incoming req see
system.mem_ctrls.wrQLenPdf::4                       1                       # What write queue length does an incoming req see
system.mem_ctrls.wrQLenPdf::5                       1                       # What write queue length does an incoming req see
system.mem_ctrls.wrQLenPdf::6                       1                       # What write queue length does an incoming req see
system.mem_ctrls.wrQLenPdf::7                       1                       # What write queue length does an incoming req see
system.mem_ctrls.wrQLenPdf::8                       1                       # What write queue length does an incoming req see
system.mem_ctrls.wrQLenPdf::9                       1                       # What write queue length does an incoming req see
system.mem_ctrls.wrQLenPdf::10                      1                       # What write queue length does an incoming req see
system.mem_ctrls.wrQLenPdf::11                      1                       # What write queue length does an incoming req see
system.mem_ctrls.wrQLenPdf::12                      1                       # What write queue length does an incoming req see
system.mem_ctrls.wrQLenPdf::13                      1                       # What write queue length does an incoming req see
system.mem_ctrls.wrQLenPdf::14                      1                       # What write queue length does an incoming req see
system.mem_ctrls.wrQLenPdf::15                   2941                       # What write queue length does an incoming req see
system.mem_ctrls.wrQLenPdf::16                   3453                       # What write queue length does an incoming req see
system.mem_ctrls.wrQLenPdf::17                  16720                       # What write queue length does an incoming req see
system.mem_ctrls.wrQLenPdf::18                  19948                       # What write queue length does an incoming req see
system.mem_ctrls.wrQLenPdf::19                  23772                       # What write queue length does an incoming req see
system.mem_ctrls.wrQLenPdf::20                  26867                       # What write queue length does an incoming req see
system.mem_ctrls.wrQLenPdf::21                  27984                       # What write queue length does an incoming req see
system.mem_ctrls.wrQLenPdf::22                  29545                       # What write queue length does an incoming req see
system.mem_ctrls.wrQLenPdf::23                  30630                       # What write queue length does an incoming req see
system.mem_ctrls.wrQLenPdf::24                  32435                       # What write queue length does an incoming req see
system.mem_ctrls.wrQLenPdf::25                  33111                       # What write queue length does an incoming req see
system.mem_ctrls.wrQLenPdf::26                  32331                       # What write queue length does an incoming req see
system.mem_ctrls.wrQLenPdf::27                  32034                       # What write queue length does an incoming req see
system.mem_ctrls.wrQLenPdf::28                  32845                       # What write queue length does an incoming req see
system.mem_ctrls.wrQLenPdf::29                  30598                       # What write queue length does an incoming req see
system.mem_ctrls.wrQLenPdf::30                  30584                       # What write queue length does an incoming req see
system.mem_ctrls.wrQLenPdf::31                  30425                       # What write queue length does an incoming req see
system.mem_ctrls.wrQLenPdf::32                  30116                       # What write queue length does an incoming req see
system.mem_ctrls.wrQLenPdf::33                   1563                       # What write queue length does an incoming req see
system.mem_ctrls.wrQLenPdf::34                   1219                       # What write queue length does an incoming req see
system.mem_ctrls.wrQLenPdf::35                   1037                       # What write queue length does an incoming req see
system.mem_ctrls.wrQLenPdf::36                    874                       # What write queue length does an incoming req see
system.mem_ctrls.wrQLenPdf::37                    774                       # What write queue length does an incoming req see
system.mem_ctrls.wrQLenPdf::38                    612                       # What write queue length does an incoming req see
system.mem_ctrls.wrQLenPdf::39                    537                       # What write queue length does an incoming req see
system.mem_ctrls.wrQLenPdf::40                    443                       # What write queue length does an incoming req see
system.mem_ctrls.wrQLenPdf::41                    398                       # What write queue length does an incoming req see
system.mem_ctrls.wrQLenPdf::42                    366                       # What write queue length does an incoming req see
system.mem_ctrls.wrQLenPdf::43                    317                       # What write queue length does an incoming req see
system.mem_ctrls.wrQLenPdf::44                    271                       # What write queue length does an incoming req see
system.mem_ctrls.wrQLenPdf::45                    265                       # What write queue length does an incoming req see
system.mem_ctrls.wrQLenPdf::46                    297                       # What write queue length does an incoming req see
system.mem_ctrls.wrQLenPdf::47                    303                       # What write queue length does an incoming req see
system.mem_ctrls.wrQLenPdf::48                    294                       # What write queue length does an incoming req see
system.mem_ctrls.wrQLenPdf::49                    290                       # What write queue length does an incoming req see
system.mem_ctrls.wrQLenPdf::50                    266                       # What write queue length does an incoming req see
system.mem_ctrls.wrQLenPdf::51                    263                       # What write queue length does an incoming req see
system.mem_ctrls.wrQLenPdf::52                    237                       # What write queue length does an incoming req see
system.mem_ctrls.wrQLenPdf::53                    228                       # What write queue length does an incoming req see
system.mem_ctrls.wrQLenPdf::54                    208                       # What write queue length does an incoming req see
system.mem_ctrls.wrQLenPdf::55                    174                       # What write queue length does an incoming req see
system.mem_ctrls.wrQLenPdf::56                    168                       # What write queue length does an incoming req see
system.mem_ctrls.wrQLenPdf::57                    160                       # What write queue length does an incoming req see
system.mem_ctrls.wrQLenPdf::58                    213                       # What write queue length does an incoming req see
system.mem_ctrls.wrQLenPdf::59                    165                       # What write queue length does an incoming req see
system.mem_ctrls.wrQLenPdf::60                    157                       # What write queue length does an incoming req see
system.mem_ctrls.wrQLenPdf::61                    114                       # What write queue length does an incoming req see
system.mem_ctrls.wrQLenPdf::62                     98                       # What write queue length does an incoming req see
system.mem_ctrls.wrQLenPdf::63                     89                       # What write queue length does an incoming req see
system.mem_ctrls.bytesPerActivate::samples      1030890                       # Bytes accessed per row activation
system.mem_ctrls.bytesPerActivate::mean    299.334982                       # Bytes accessed per row activation
system.mem_ctrls.bytesPerActivate::gmean   174.037355                       # Bytes accessed per row activation
system.mem_ctrls.bytesPerActivate::stdev   329.329019                       # Bytes accessed per row activation
system.mem_ctrls.bytesPerActivate::0-127       400074     38.81%     38.81% # Bytes accessed per row activation
system.mem_ctrls.bytesPerActivate::128-255       264720     25.68%     64.49% # Bytes accessed per row activation
system.mem_ctrls.bytesPerActivate::256-383        88338      8.57%     73.06% # Bytes accessed per row activation
system.mem_ctrls.bytesPerActivate::384-511        51349      4.98%     78.04% # Bytes accessed per row activation
system.mem_ctrls.bytesPerActivate::512-639        41813      4.06%     82.09% # Bytes accessed per row activation
system.mem_ctrls.bytesPerActivate::640-767        23977      2.33%     84.42% # Bytes accessed per row activation
system.mem_ctrls.bytesPerActivate::768-895        19733      1.91%     86.33% # Bytes accessed per row activation
system.mem_ctrls.bytesPerActivate::896-1023        13880      1.35%     87.68% # Bytes accessed per row activation
system.mem_ctrls.bytesPerActivate::1024-1151       127006     12.32%    100.00% # Bytes accessed per row activation
system.mem_ctrls.bytesPerActivate::total      1030890                       # Bytes accessed per row activation
system.mem_ctrls.rdPerTurnAround::samples        29100                       # Reads before turning the bus around for writes
system.mem_ctrls.rdPerTurnAround::mean     149.238385                       # Reads before turning the bus around for writes
system.mem_ctrls.rdPerTurnAround::stdev   6051.366144                       # Reads before turning the bus around for writes
system.mem_ctrls.rdPerTurnAround::0-32767        29099    100.00%    100.00% # Reads before turning the bus around for writes
system.mem_ctrls.rdPerTurnAround::1.01581e+06-1.04858e+06            1      0.00%    100.00% # Reads before turning the bus around for writes
system.mem_ctrls.rdPerTurnAround::total         29100                       # Reads before turning the bus around for writes
system.mem_ctrls.wrPerTurnAround::samples        29100                       # Writes before turning the bus around for reads
system.mem_ctrls.wrPerTurnAround::mean      16.451237                       # Writes before turning the bus around for reads
system.mem_ctrls.wrPerTurnAround::gmean     16.314128                       # Writes before turning the bus around for reads
system.mem_ctrls.wrPerTurnAround::stdev      4.057051                       # Writes before turning the bus around for reads
system.mem_ctrls.wrPerTurnAround::16-19         28859     99.17%     99.17% # Writes before turning the bus around for reads
system.mem_ctrls.wrPerTurnAround::20-23           111      0.38%     99.55% # Writes before turning the bus around for reads
system.mem_ctrls.wrPerTurnAround::24-27            11      0.04%     99.59% # Writes before turning the bus around for reads
system.mem_ctrls.wrPerTurnAround::28-31            45      0.15%     99.75% # Writes before turning the bus around for reads
system.mem_ctrls.wrPerTurnAround::32-35             4      0.01%     99.76% # Writes before turning the bus around for reads
system.mem_ctrls.wrPerTurnAround::36-39             1      0.00%     99.76% # Writes before turning the bus around for reads
system.mem_ctrls.wrPerTurnAround::40-43             2      0.01%     99.77% # Writes before turning the bus around for reads
system.mem_ctrls.wrPerTurnAround::44-47             2      0.01%     99.78% # Writes before turning the bus around for reads
system.mem_ctrls.wrPerTurnAround::48-51             6      0.02%     99.80% # Writes before turning the bus around for reads
system.mem_ctrls.wrPerTurnAround::52-55             2      0.01%     99.80% # Writes before turning the bus around for reads
system.mem_ctrls.wrPerTurnAround::60-63             1      0.00%     99.81% # Writes before turning the bus around for reads
system.mem_ctrls.wrPerTurnAround::68-71             2      0.01%     99.81% # Writes before turning the bus around for reads
system.mem_ctrls.wrPerTurnAround::72-75             2      0.01%     99.82% # Writes before turning the bus around for reads
system.mem_ctrls.wrPerTurnAround::76-79             1      0.00%     99.82% # Writes before turning the bus around for reads
system.mem_ctrls.wrPerTurnAround::80-83             6      0.02%     99.85% # Writes before turning the bus around for reads
system.mem_ctrls.wrPerTurnAround::96-99            29      0.10%     99.95% # Writes before turning the bus around for reads
system.mem_ctrls.wrPerTurnAround::100-103            1      0.00%     99.95% # Writes before turning the bus around for reads
system.mem_ctrls.wrPerTurnAround::104-107            1      0.00%     99.95% # Writes before turning the bus around for reads
system.mem_ctrls.wrPerTurnAround::108-111            2      0.01%     99.96% # Writes before turning the bus around for reads
system.mem_ctrls.wrPerTurnAround::112-115            2      0.01%     99.97% # Writes before turning the bus around for reads
system.mem_ctrls.wrPerTurnAround::124-127            2      0.01%     99.97% # Writes before turning the bus around for reads
system.mem_ctrls.wrPerTurnAround::128-131            1      0.00%     99.98% # Writes before turning the bus around for reads
system.mem_ctrls.wrPerTurnAround::132-135            1      0.00%     99.98% # Writes before turning the bus around for reads
system.mem_ctrls.wrPerTurnAround::140-143            1      0.00%     99.98% # Writes before turning the bus around for reads
system.mem_ctrls.wrPerTurnAround::144-147            2      0.01%     99.99% # Writes before turning the bus around for reads
system.mem_ctrls.wrPerTurnAround::152-155            1      0.00%     99.99% # Writes before turning the bus around for reads
system.mem_ctrls.wrPerTurnAround::156-159            2      0.01%    100.00% # Writes before turning the bus around for reads
system.mem_ctrls.wrPerTurnAround::total         29100                       # Writes before turning the bus around for reads
system.mem_ctrls.totQLat                  42045918853                       # Total ticks spent queuing
system.mem_ctrls.totMemAccLat            123474956353                       # Total ticks spent from burst creation until serviced by the DRAM
system.mem_ctrls.totBusLat                21714410000                       # Total ticks spent in databus transfers
system.mem_ctrls.avgQLat                      9681.57                       # Average queueing delay per DRAM burst
system.mem_ctrls.avgBusLat                    5000.00                       # Average bus latency per DRAM burst
system.mem_ctrls.avgMemAccLat                28431.57                       # Average memory access latency per DRAM burst
system.mem_ctrls.avgRdBW                       112.02                       # Average DRAM read bandwidth in MiByte/s
system.mem_ctrls.avgWrBW                        12.35                       # Average achieved write bandwidth in MiByte/s
system.mem_ctrls.avgRdBWSys                    112.95                       # Average system read bandwidth in MiByte/s
system.mem_ctrls.avgWrBWSys                     12.45                       # Average system write bandwidth in MiByte/s
system.mem_ctrls.peakBW                      12800.00                       # Theoretical peak bandwidth in MiByte/s
system.mem_ctrls.busUtil                         0.97                       # Data bus utilization in percentage
system.mem_ctrls.busUtilRead                     0.88                       # Data bus utilization in percentage for reads
system.mem_ctrls.busUtilWrite                    0.10                       # Data bus utilization in percentage for writes
system.mem_ctrls.avgRdQLen                       1.04                       # Average read queue length when enqueuing
system.mem_ctrls.avgWrQLen                      24.85                       # Average write queue length when enqueuing
system.mem_ctrls.readRowHits                  3453645                       # Number of row buffer hits during reads
system.mem_ctrls.writeRowHits                  337063                       # Number of row buffer hits during writes
system.mem_ctrls.readRowHitRate                 79.52                       # Row buffer hit rate for reads
system.mem_ctrls.writeRowHitRate                70.40                       # Row buffer hit rate for writes
system.mem_ctrls.avgGap                     510396.30                       # Average gap between requests
system.mem_ctrls.pageHitRate                    78.62                       # Row buffer hit rate, read and write combined
system.mem_ctrls.memoryStateTime::IDLE   2183460815000                       # Time in different power states
system.mem_ctrls.memoryStateTime::REF     82849520000                       # Time in different power states
system.mem_ctrls.memoryStateTime::PRE_PDN            0                       # Time in different power states
system.mem_ctrls.memoryStateTime::ACT    214794073750                       # Time in different power states
system.mem_ctrls.memoryStateTime::ACT_PDN            0                       # Time in different power states
system.mem_ctrls.actEnergy::0              3428263440                       # Energy for activate commands per rank (pJ)
system.mem_ctrls.actEnergy::1              4365181800                       # Energy for activate commands per rank (pJ)
system.mem_ctrls.preEnergy::0              1870580250                       # Energy for precharge commands per rank (pJ)
system.mem_ctrls.preEnergy::1              2381795625                       # Energy for precharge commands per rank (pJ)
system.mem_ctrls.readEnergy::0            17207213400                       # Energy for read commands per rank (pJ)
system.mem_ctrls.readEnergy::1            16666798200                       # Energy for read commands per rank (pJ)
system.mem_ctrls.writeEnergy::0            1522625040                       # Energy for write commands per rank (pJ)
system.mem_ctrls.writeEnergy::1            1579448160                       # Energy for write commands per rank (pJ)
system.mem_ctrls.refreshEnergy::0        162053661120                       # Energy for refresh commands per rank (pJ)
system.mem_ctrls.refreshEnergy::1        162053661120                       # Energy for refresh commands per rank (pJ)
system.mem_ctrls.actBackEnergy::0        176225861745                       # Energy for active background per rank (pJ)
system.mem_ctrls.actBackEnergy::1        179071221375                       # Energy for active background per rank (pJ)
system.mem_ctrls.preBackEnergy::0        1334078547750                       # Energy for precharge background per rank (pJ)
system.mem_ctrls.preBackEnergy::1        1331582618250                       # Energy for precharge background per rank (pJ)
system.mem_ctrls.totalEnergy::0          1696386752745                       # Total energy per rank (pJ)
system.mem_ctrls.totalEnergy::1          1697700724530                       # Total energy per rank (pJ)
system.mem_ctrls.averagePower::0           683.722441                       # Core power per rank (mW)
system.mem_ctrls.averagePower::1           684.252032                       # Core power per rank (mW)
system.membus.trans_dist::ReadReq             4169821                       # Transaction distribution
system.membus.trans_dist::ReadResp            4169426                       # Transaction distribution
system.membus.trans_dist::WriteReq              16870                       # Transaction distribution
system.membus.trans_dist::WriteResp             16870                       # Transaction distribution
system.membus.trans_dist::Writeback            438223                       # Transaction distribution
system.membus.trans_dist::WriteInvalidateReq        44256                       # Transaction distribution
system.membus.trans_dist::WriteInvalidateResp        44256                       # Transaction distribution
system.membus.trans_dist::UpgradeReq            52127                       # Transaction distribution
system.membus.trans_dist::SCUpgradeReq          25620                       # Transaction distribution
system.membus.trans_dist::UpgradeResp           77747                       # Transaction distribution
system.membus.trans_dist::ReadExReq            311488                       # Transaction distribution
system.membus.trans_dist::ReadExResp           311488                       # Transaction distribution
system.membus.trans_dist::BadAddressError          393                       # Transaction distribution
system.membus.pkt_count_system.iocache.mem_side::system.mem_ctrls.port        88786                       # Packet count per connected master and slave (bytes)
system.membus.pkt_count_system.iocache.mem_side::total        88786                       # Packet count per connected master and slave (bytes)
system.membus.pkt_count_system.cpu0.icache.mem_side::system.mem_ctrls.port      1861524                       # Packet count per connected master and slave (bytes)
system.membus.pkt_count_system.cpu0.icache.mem_side::total      1861524                       # Packet count per connected master and slave (bytes)
system.membus.pkt_count_system.cpu0.dcache.mem_side::system.bridge.slave        38572                       # Packet count per connected master and slave (bytes)
system.membus.pkt_count_system.cpu0.dcache.mem_side::system.mem_ctrls.port      5612358                       # Packet count per connected master and slave (bytes)
system.membus.pkt_count_system.cpu0.dcache.mem_side::system.membus.badaddr_responder.pio          676                       # Packet count per connected master and slave (bytes)
system.membus.pkt_count_system.cpu0.dcache.mem_side::total      5651606                       # Packet count per connected master and slave (bytes)
system.membus.pkt_count_system.cpu1.icache.mem_side::system.mem_ctrls.port      1286210                       # Packet count per connected master and slave (bytes)
system.membus.pkt_count_system.cpu1.icache.mem_side::total      1286210                       # Packet count per connected master and slave (bytes)
system.membus.pkt_count_system.cpu1.dcache.mem_side::system.bridge.slave        10106                       # Packet count per connected master and slave (bytes)
system.membus.pkt_count_system.cpu1.dcache.mem_side::system.mem_ctrls.port       627261                       # Packet count per connected master and slave (bytes)
system.membus.pkt_count_system.cpu1.dcache.mem_side::system.membus.badaddr_responder.pio          110                       # Packet count per connected master and slave (bytes)
system.membus.pkt_count_system.cpu1.dcache.mem_side::total       637477                       # Packet count per connected master and slave (bytes)
system.membus.pkt_count::total                9525603                       # Packet count per connected master and slave (bytes)
system.membus.pkt_size_system.iocache.mem_side::system.mem_ctrls.port      2836544                       # Cumulative packet size per connected master and slave (bytes)
system.membus.pkt_size_system.iocache.mem_side::total      2836544                       # Cumulative packet size per connected master and slave (bytes)
system.membus.pkt_size_system.cpu0.icache.mem_side::system.mem_ctrls.port     59509888                       # Cumulative packet size per connected master and slave (bytes)
system.membus.pkt_size_system.cpu0.icache.mem_side::total     59509888                       # Cumulative packet size per connected master and slave (bytes)
system.membus.pkt_size_system.cpu0.dcache.mem_side::system.bridge.slave        61530                       # Cumulative packet size per connected master and slave (bytes)
system.membus.pkt_size_system.cpu0.dcache.mem_side::system.mem_ctrls.port    186627328                       # Cumulative packet size per connected master and slave (bytes)
system.membus.pkt_size_system.cpu0.dcache.mem_side::total    186688858                       # Cumulative packet size per connected master and slave (bytes)
system.membus.pkt_size_system.cpu1.icache.mem_side::system.mem_ctrls.port     41155328                       # Cumulative packet size per connected master and slave (bytes)
system.membus.pkt_size_system.cpu1.icache.mem_side::total     41155328                       # Cumulative packet size per connected master and slave (bytes)
system.membus.pkt_size_system.cpu1.dcache.mem_side::system.bridge.slave        36737                       # Cumulative packet size per connected master and slave (bytes)
system.membus.pkt_size_system.cpu1.dcache.mem_side::system.mem_ctrls.port     20983744                       # Cumulative packet size per connected master and slave (bytes)
system.membus.pkt_size_system.cpu1.dcache.mem_side::total     21020481                       # Cumulative packet size per connected master and slave (bytes)
system.membus.pkt_size::total               311211099                       # Cumulative packet size per connected master and slave (bytes)
system.membus.snoops                           152982                       # Total snoops (count)
system.membus.snoop_fanout::samples           5034099                       # Request fanout histogram
system.membus.snoop_fanout::mean                    4                       # Request fanout histogram
system.membus.snoop_fanout::stdev                   0                       # Request fanout histogram
system.membus.snoop_fanout::underflows              0      0.00%      0.00% # Request fanout histogram
system.membus.snoop_fanout::0                       0      0.00%      0.00% # Request fanout histogram
system.membus.snoop_fanout::1                       0      0.00%      0.00% # Request fanout histogram
system.membus.snoop_fanout::2                       0      0.00%      0.00% # Request fanout histogram
system.membus.snoop_fanout::3                       0      0.00%      0.00% # Request fanout histogram
system.membus.snoop_fanout::4                 5034099    100.00%    100.00% # Request fanout histogram
system.membus.snoop_fanout::5                       0      0.00%    100.00% # Request fanout histogram
system.membus.snoop_fanout::overflows               0      0.00%    100.00% # Request fanout histogram
system.membus.snoop_fanout::min_value               4                       # Request fanout histogram
system.membus.snoop_fanout::max_value               4                       # Request fanout histogram
system.membus.snoop_fanout::total             5034099                       # Request fanout histogram
system.membus.reqLayer0.occupancy            41215993                       # Layer occupancy (ticks)
system.membus.reqLayer0.utilization               0.0                       # Layer utilization (%)
system.membus.reqLayer1.occupancy          8894452734                       # Layer occupancy (ticks)
system.membus.reqLayer1.utilization               0.4                       # Layer utilization (%)
system.membus.reqLayer2.occupancy              393000                       # Layer occupancy (ticks)
system.membus.reqLayer2.utilization               0.0                       # Layer utilization (%)
system.membus.respLayer1.occupancy           46399502                       # Layer occupancy (ticks)
system.membus.respLayer1.utilization              0.0                       # Layer utilization (%)
system.membus.respLayer2.occupancy         8702178956                       # Layer occupancy (ticks)
system.membus.respLayer2.utilization              0.4                       # Layer utilization (%)
system.membus.respLayer3.occupancy        24459447197                       # Layer occupancy (ticks)
system.membus.respLayer3.utilization              1.0                       # Layer utilization (%)
system.membus.respLayer4.occupancy         6014734120                       # Layer occupancy (ticks)
system.membus.respLayer4.utilization              0.2                       # Layer utilization (%)
system.membus.respLayer5.occupancy         2454442339                       # Layer occupancy (ticks)
system.membus.respLayer5.utilization              0.1                       # Layer utilization (%)
system.iocache.tags.replacements                44417                       # number of replacements
system.iocache.tags.tagsinuse                0.256274                       # Cycle average of tags in use
system.iocache.tags.total_refs                      0                       # Total number of references to valid blocks.
system.iocache.tags.sampled_refs                44417                       # Sample count of references to valid blocks.
system.iocache.tags.avg_refs                        0                       # Average number of references to valid blocks.
system.iocache.tags.warmup_cycle         2439258415000                       # Cycle when the warmup percentage was hit.
system.iocache.tags.occ_blocks::tsunami.ide     0.256274                       # Average occupied blocks per requestor
system.iocache.tags.occ_percent::tsunami.ide     0.016017                       # Average percentage of cache occupancy
system.iocache.tags.occ_percent::total       0.016017                       # Average percentage of cache occupancy
system.iocache.tags.occ_task_id_blocks::1023           16                       # Occupied blocks per task id
system.iocache.tags.age_task_id_blocks_1023::3           16                       # Occupied blocks per task id
system.iocache.tags.occ_task_id_percent::1023            1                       # Percentage of cache occupancy per task id
system.iocache.tags.tag_accesses               400353                       # Number of tag accesses
system.iocache.tags.data_accesses              400353                       # Number of data accesses
system.iocache.WriteInvalidateReq_hits::tsunami.ide        44256                       # number of WriteInvalidateReq hits
system.iocache.WriteInvalidateReq_hits::total        44256                       # number of WriteInvalidateReq hits
system.iocache.ReadReq_misses::tsunami.ide          209                       # number of ReadReq misses
system.iocache.ReadReq_misses::total              209                       # number of ReadReq misses
system.iocache.WriteInvalidateReq_misses::tsunami.ide           21                       # number of WriteInvalidateReq misses
system.iocache.WriteInvalidateReq_misses::total           21                       # number of WriteInvalidateReq misses
system.iocache.demand_misses::tsunami.ide          209                       # number of demand (read+write) misses
system.iocache.demand_misses::total               209                       # number of demand (read+write) misses
system.iocache.overall_misses::tsunami.ide          209                       # number of overall misses
system.iocache.overall_misses::total              209                       # number of overall misses
system.iocache.ReadReq_miss_latency::tsunami.ide     30661852                       # number of ReadReq miss cycles
system.iocache.ReadReq_miss_latency::total     30661852                       # number of ReadReq miss cycles
system.iocache.demand_miss_latency::tsunami.ide     30661852                       # number of demand (read+write) miss cycles
system.iocache.demand_miss_latency::total     30661852                       # number of demand (read+write) miss cycles
system.iocache.overall_miss_latency::tsunami.ide     30661852                       # number of overall miss cycles
system.iocache.overall_miss_latency::total     30661852                       # number of overall miss cycles
system.iocache.ReadReq_accesses::tsunami.ide          209                       # number of ReadReq accesses(hits+misses)
system.iocache.ReadReq_accesses::total            209                       # number of ReadReq accesses(hits+misses)
system.iocache.WriteInvalidateReq_accesses::tsunami.ide        44277                       # number of WriteInvalidateReq accesses(hits+misses)
system.iocache.WriteInvalidateReq_accesses::total        44277                       # number of WriteInvalidateReq accesses(hits+misses)
system.iocache.demand_accesses::tsunami.ide          209                       # number of demand (read+write) accesses
system.iocache.demand_accesses::total             209                       # number of demand (read+write) accesses
system.iocache.overall_accesses::tsunami.ide          209                       # number of overall (read+write) accesses
system.iocache.overall_accesses::total            209                       # number of overall (read+write) accesses
system.iocache.ReadReq_miss_rate::tsunami.ide            1                       # miss rate for ReadReq accesses
system.iocache.ReadReq_miss_rate::total             1                       # miss rate for ReadReq accesses
system.iocache.WriteInvalidateReq_miss_rate::tsunami.ide     0.000474                       # miss rate for WriteInvalidateReq accesses
system.iocache.WriteInvalidateReq_miss_rate::total     0.000474                       # miss rate for WriteInvalidateReq accesses
system.iocache.demand_miss_rate::tsunami.ide            1                       # miss rate for demand accesses
system.iocache.demand_miss_rate::total              1                       # miss rate for demand accesses
system.iocache.overall_miss_rate::tsunami.ide            1                       # miss rate for overall accesses
system.iocache.overall_miss_rate::total             1                       # miss rate for overall accesses
system.iocache.ReadReq_avg_miss_latency::tsunami.ide 146707.425837                       # average ReadReq miss latency
system.iocache.ReadReq_avg_miss_latency::total 146707.425837                       # average ReadReq miss latency
system.iocache.demand_avg_miss_latency::tsunami.ide 146707.425837                       # average overall miss latency
system.iocache.demand_avg_miss_latency::total 146707.425837                       # average overall miss latency
system.iocache.overall_avg_miss_latency::tsunami.ide 146707.425837                       # average overall miss latency
system.iocache.overall_avg_miss_latency::total 146707.425837                       # average overall miss latency
system.iocache.blocked_cycles::no_mshrs           453                       # number of cycles access was blocked
system.iocache.blocked_cycles::no_targets            0                       # number of cycles access was blocked
system.iocache.blocked::no_mshrs                   45                       # number of cycles access was blocked
system.iocache.blocked::no_targets                  0                       # number of cycles access was blocked
system.iocache.avg_blocked_cycles::no_mshrs    10.066667                       # average number of cycles each access was blocked
system.iocache.avg_blocked_cycles::no_targets          nan                       # average number of cycles each access was blocked
system.iocache.fast_writes                      44256                       # number of fast writes performed
system.iocache.cache_copies                         0                       # number of cache copies performed
system.iocache.ReadReq_mshr_misses::tsunami.ide          209                       # number of ReadReq MSHR misses
system.iocache.ReadReq_mshr_misses::total          209                       # number of ReadReq MSHR misses
system.iocache.WriteInvalidateReq_mshr_misses::tsunami.ide        44256                       # number of WriteInvalidateReq MSHR misses
system.iocache.WriteInvalidateReq_mshr_misses::total        44256                       # number of WriteInvalidateReq MSHR misses
system.iocache.demand_mshr_misses::tsunami.ide          209                       # number of demand (read+write) MSHR misses
system.iocache.demand_mshr_misses::total          209                       # number of demand (read+write) MSHR misses
system.iocache.overall_mshr_misses::tsunami.ide          209                       # number of overall MSHR misses
system.iocache.overall_mshr_misses::total          209                       # number of overall MSHR misses
system.iocache.ReadReq_mshr_miss_latency::tsunami.ide     19788354                       # number of ReadReq MSHR miss cycles
system.iocache.ReadReq_mshr_miss_latency::total     19788354                       # number of ReadReq MSHR miss cycles
system.iocache.WriteInvalidateReq_mshr_miss_latency::tsunami.ide   3058999959                       # number of WriteInvalidateReq MSHR miss cycles
system.iocache.WriteInvalidateReq_mshr_miss_latency::total   3058999959                       # number of WriteInvalidateReq MSHR miss cycles
system.iocache.demand_mshr_miss_latency::tsunami.ide     19788354                       # number of demand (read+write) MSHR miss cycles
system.iocache.demand_mshr_miss_latency::total     19788354                       # number of demand (read+write) MSHR miss cycles
system.iocache.overall_mshr_miss_latency::tsunami.ide     19788354                       # number of overall MSHR miss cycles
system.iocache.overall_mshr_miss_latency::total     19788354                       # number of overall MSHR miss cycles
system.iocache.ReadReq_mshr_miss_rate::tsunami.ide            1                       # mshr miss rate for ReadReq accesses
system.iocache.ReadReq_mshr_miss_rate::total            1                       # mshr miss rate for ReadReq accesses
system.iocache.WriteInvalidateReq_mshr_miss_rate::tsunami.ide     0.999526                       # mshr miss rate for WriteInvalidateReq accesses
system.iocache.WriteInvalidateReq_mshr_miss_rate::total     0.999526                       # mshr miss rate for WriteInvalidateReq accesses
system.iocache.demand_mshr_miss_rate::tsunami.ide            1                       # mshr miss rate for demand accesses
system.iocache.demand_mshr_miss_rate::total            1                       # mshr miss rate for demand accesses
system.iocache.overall_mshr_miss_rate::tsunami.ide            1                       # mshr miss rate for overall accesses
system.iocache.overall_mshr_miss_rate::total            1                       # mshr miss rate for overall accesses
system.iocache.ReadReq_avg_mshr_miss_latency::tsunami.ide 94681.119617                       # average ReadReq mshr miss latency
system.iocache.ReadReq_avg_mshr_miss_latency::total 94681.119617                       # average ReadReq mshr miss latency
system.iocache.WriteInvalidateReq_avg_mshr_miss_latency::tsunami.ide 69120.570296                       # average WriteInvalidateReq mshr miss latency
system.iocache.WriteInvalidateReq_avg_mshr_miss_latency::total 69120.570296                       # average WriteInvalidateReq mshr miss latency
system.iocache.demand_avg_mshr_miss_latency::tsunami.ide 94681.119617                       # average overall mshr miss latency
system.iocache.demand_avg_mshr_miss_latency::total 94681.119617                       # average overall mshr miss latency
system.iocache.overall_avg_mshr_miss_latency::tsunami.ide 94681.119617                       # average overall mshr miss latency
system.iocache.overall_avg_mshr_miss_latency::total 94681.119617                       # average overall mshr miss latency
system.iocache.no_allocate_misses                   0                       # Number of misses that were no-allocate
system.disk0.dma_read_full_pages                    0                       # Number of full page size DMA reads (not PRD).
system.disk0.dma_read_bytes                      4096                       # Number of bytes transfered via DMA reads (not PRD).
system.disk0.dma_read_txs                           1                       # Number of DMA read transactions (not PRD).
system.disk0.dma_write_full_pages                 326                       # Number of full page size DMA writes.
system.disk0.dma_write_bytes                  2824192                       # Number of bytes transfered via DMA writes.
system.disk0.dma_write_txs                        365                       # Number of DMA write transactions.
system.disk2.dma_read_full_pages                    0                       # Number of full page size DMA reads (not PRD).
system.disk2.dma_read_bytes                         0                       # Number of bytes transfered via DMA reads (not PRD).
system.disk2.dma_read_txs                           0                       # Number of DMA read transactions (not PRD).
system.disk2.dma_write_full_pages                   1                       # Number of full page size DMA writes.
system.disk2.dma_write_bytes                     8192                       # Number of bytes transfered via DMA writes.
system.disk2.dma_write_txs                          1                       # Number of DMA write transactions.
system.cpu0.branchPred.lookups               21232019                       # Number of BP lookups
system.cpu0.branchPred.condPredicted         17871979                       # Number of conditional branches predicted
system.cpu0.branchPred.condIncorrect           449692                       # Number of conditional branches incorrect
system.cpu0.branchPred.BTBLookups            13525915                       # Number of BTB lookups
system.cpu0.branchPred.BTBHits                8658400                       # Number of BTB hits
system.cpu0.branchPred.BTBCorrect                   0                       # Number of correct BTB predictions (this stat may not work properly.
system.cpu0.branchPred.BTBHitPct            64.013414                       # BTB Hit Percentage
system.cpu0.branchPred.usedRAS                1401110                       # Number of times the RAS was used to get a target.
system.cpu0.branchPred.RASInCorrect             23533                       # Number of incorrect RAS predictions.
system.cpu_voltage_domain.voltage                   1                       # Voltage in Volts
system.cpu_clk_domain.clock                      1000                       # Clock period in ticks
system.cpu0.dtb.fetch_hits                          0                       # ITB hits
system.cpu0.dtb.fetch_misses                        0                       # ITB misses
system.cpu0.dtb.fetch_acv                           0                       # ITB acv
system.cpu0.dtb.fetch_accesses                      0                       # ITB accesses
system.cpu0.dtb.read_hits                    14348871                       # DTB read hits
system.cpu0.dtb.read_misses                     60370                       # DTB read misses
system.cpu0.dtb.read_acv                          120                       # DTB read access violations
system.cpu0.dtb.read_accesses                  777690                       # DTB read accesses
system.cpu0.dtb.write_hits                    6332876                       # DTB write hits
system.cpu0.dtb.write_misses                    10940                       # DTB write misses
system.cpu0.dtb.write_acv                         300                       # DTB write access violations
system.cpu0.dtb.write_accesses                 251364                       # DTB write accesses
system.cpu0.dtb.data_hits                    20681747                       # DTB hits
system.cpu0.dtb.data_misses                     71310                       # DTB misses
system.cpu0.dtb.data_acv                          420                       # DTB access violations
system.cpu0.dtb.data_accesses                 1029054                       # DTB accesses
system.cpu0.itb.fetch_hits                    1410939                       # ITB hits
system.cpu0.itb.fetch_misses                    17702                       # ITB misses
system.cpu0.itb.fetch_acv                         432                       # ITB acv
system.cpu0.itb.fetch_accesses                1428641                       # ITB accesses
system.cpu0.itb.read_hits                           0                       # DTB read hits
system.cpu0.itb.read_misses                         0                       # DTB read misses
system.cpu0.itb.read_acv                            0                       # DTB read access violations
system.cpu0.itb.read_accesses                       0                       # DTB read accesses
system.cpu0.itb.write_hits                          0                       # DTB write hits
system.cpu0.itb.write_misses                        0                       # DTB write misses
system.cpu0.itb.write_acv                           0                       # DTB write access violations
system.cpu0.itb.write_accesses                      0                       # DTB write accesses
system.cpu0.itb.data_hits                           0                       # DTB hits
system.cpu0.itb.data_misses                         0                       # DTB misses
system.cpu0.itb.data_acv                            0                       # DTB access violations
system.cpu0.itb.data_accesses                       0                       # DTB accesses
system.cpu0.numCycles                       176547074                       # number of cpu cycles simulated
system.cpu0.numWorkItemsStarted                     0                       # number of work items this cpu started
system.cpu0.numWorkItemsCompleted                   0                       # number of work items this cpu completed
system.cpu0.fetch.icacheStallCycles          35535688                       # Number of cycles fetch is stalled on an Icache miss
system.cpu0.fetch.Insts                      97519504                       # Number of instructions fetch has processed
system.cpu0.fetch.Branches                   21232019                       # Number of branches that fetch encountered
system.cpu0.fetch.predictedBranches          10059510                       # Number of branches that fetch has predicted taken
system.cpu0.fetch.Cycles                    116075591                       # Number of cycles fetch has run and was not squashing or blocked
system.cpu0.fetch.SquashCycles                1304002                       # Number of cycles fetch has spent squashing
system.cpu0.fetch.TlbCycles                       800                       # Number of cycles fetch has spent waiting for tlb
system.cpu0.fetch.MiscStallCycles               67571                       # Number of cycles fetch has spent waiting on interrupts, or bad addresses, or out of MSHRs
system.cpu0.fetch.PendingTrapStallCycles       832542                       # Number of stall cycles due to pending traps
system.cpu0.fetch.PendingQuiesceStallCycles       470535                       # Number of stall cycles due to pending quiesce instructions
system.cpu0.fetch.IcacheWaitRetryStallCycles          187                       # Number of stall cycles due to full MSHR
system.cpu0.fetch.CacheLines                 12347520                       # Number of cache lines fetched
system.cpu0.fetch.IcacheSquashes               322240                       # Number of outstanding Icache misses that were squashed
system.cpu0.fetch.ItlbSquashes                     12                       # Number of outstanding ITLB misses that were squashed
system.cpu0.fetch.rateDist::samples         153634915                       # Number of instructions fetched each cycle (Total)
system.cpu0.fetch.rateDist::mean             0.634748                       # Number of instructions fetched each cycle (Total)
system.cpu0.fetch.rateDist::stdev            1.870911                       # Number of instructions fetched each cycle (Total)
system.cpu0.fetch.rateDist::underflows              0      0.00%      0.00% # Number of instructions fetched each cycle (Total)
system.cpu0.fetch.rateDist::0               133165354     86.68%     86.68% # Number of instructions fetched each cycle (Total)
system.cpu0.fetch.rateDist::1                 2533412      1.65%     88.33% # Number of instructions fetched each cycle (Total)
system.cpu0.fetch.rateDist::2                 2850918      1.86%     90.18% # Number of instructions fetched each cycle (Total)
system.cpu0.fetch.rateDist::3                 1690781      1.10%     91.28% # Number of instructions fetched each cycle (Total)
system.cpu0.fetch.rateDist::4                 4050301      2.64%     93.92% # Number of instructions fetched each cycle (Total)
system.cpu0.fetch.rateDist::5                  933217      0.61%     94.53% # Number of instructions fetched each cycle (Total)
system.cpu0.fetch.rateDist::6                 1611572      1.05%     95.57% # Number of instructions fetched each cycle (Total)
system.cpu0.fetch.rateDist::7                  719688      0.47%     96.04% # Number of instructions fetched each cycle (Total)
system.cpu0.fetch.rateDist::8                 6079672      3.96%    100.00% # Number of instructions fetched each cycle (Total)
system.cpu0.fetch.rateDist::overflows               0      0.00%    100.00% # Number of instructions fetched each cycle (Total)
system.cpu0.fetch.rateDist::min_value               0                       # Number of instructions fetched each cycle (Total)
system.cpu0.fetch.rateDist::max_value               8                       # Number of instructions fetched each cycle (Total)
system.cpu0.fetch.rateDist::total           153634915                       # Number of instructions fetched each cycle (Total)
system.cpu0.fetch.branchRate                 0.120263                       # Number of branch fetches per cycle
system.cpu0.fetch.rate                       0.552371                       # Number of inst fetches per cycle
system.cpu0.decode.IdleCycles                27102597                       # Number of cycles decode is idle
system.cpu0.decode.BlockedCycles            111290816                       # Number of cycles decode is blocked
system.cpu0.decode.RunCycles                 11030213                       # Number of cycles decode is running
system.cpu0.decode.UnblockCycles              3611004                       # Number of cycles decode is unblocking
system.cpu0.decode.SquashCycles                600284                       # Number of cycles decode is squashing
system.cpu0.decode.BranchResolved              684315                       # Number of times decode resolved a branch
system.cpu0.decode.BranchMispred                52422                       # Number of times decode detected a branch misprediction
system.cpu0.decode.DecodedInsts              88675455                       # Number of instructions handled by decode
system.cpu0.decode.SquashedInsts               146044                       # Number of squashed instructions handled by decode
system.cpu0.rename.SquashCycles                600284                       # Number of cycles rename is squashing
system.cpu0.rename.IdleCycles                28571765                       # Number of cycles rename is idle
system.cpu0.rename.BlockCycles               77627842                       # Number of cycles rename is blocking
system.cpu0.rename.serializeStallCycles      21453370                       # count of cycles rename stalled for serializing inst
system.cpu0.rename.RunCycles                 12891698                       # Number of cycles rename is running
system.cpu0.rename.UnblockCycles             12489954                       # Number of cycles rename is unblocking
system.cpu0.rename.RenamedInsts              86339802                       # Number of instructions processed by rename
system.cpu0.rename.ROBFullEvents               194330                       # Number of times rename has blocked due to ROB full
system.cpu0.rename.IQFullEvents               7729601                       # Number of times rename has blocked due to IQ full
system.cpu0.rename.LQFullEvents                664289                       # Number of times rename has blocked due to LQ full
system.cpu0.rename.SQFullEvents               2192632                       # Number of times rename has blocked due to SQ full
system.cpu0.rename.RenamedOperands           63044350                       # Number of destination operands rename has renamed
system.cpu0.rename.RenameLookups            111296710                       # Number of register rename lookups that rename has made
system.cpu0.rename.int_rename_lookups       111172945                       # Number of integer rename lookups
system.cpu0.rename.fp_rename_lookups           114328                       # Number of floating rename lookups
system.cpu0.rename.CommittedMaps             55545763                       # Number of HB maps that are committed
system.cpu0.rename.UndoneMaps                 7498585                       # Number of HB maps that are undone due to squashing
system.cpu0.rename.serializingInsts           1356631                       # count of serializing insts renamed
system.cpu0.rename.tempSerializingInsts        236620                       # count of temporary serializing insts renamed
system.cpu0.rename.skidInsts                 23597769                       # count of insts added to the skid buffer
system.cpu0.memDep0.insertedLoads            14669474                       # Number of loads inserted to the mem dependence unit.
system.cpu0.memDep0.insertedStores            6662889                       # Number of stores inserted to the mem dependence unit.
system.cpu0.memDep0.conflictingLoads          1886240                       # Number of conflicting loads.
system.cpu0.memDep0.conflictingStores         1219044                       # Number of conflicting stores.
system.cpu0.iq.iqInstsAdded                  81188806                       # Number of instructions added to the IQ (excludes non-spec)
system.cpu0.iq.iqNonSpecInstsAdded            1873268                       # Number of non-speculative instructions added to the IQ
system.cpu0.iq.iqInstsIssued                 79270212                       # Number of instructions issued
system.cpu0.iq.iqSquashedInstsIssued            72568                       # Number of squashed instructions issued
system.cpu0.iq.iqSquashedInstsExamined        9231397                       # Number of squashed instructions iterated over during squash; mainly for profiling
system.cpu0.iq.iqSquashedOperandsExamined      4732005                       # Number of squashed operands that are examined and possibly removed from graph
system.cpu0.iq.iqSquashedNonSpecRemoved       1174048                       # Number of squashed non-spec instructions that were removed
system.cpu0.iq.issued_per_cycle::samples    153634915                       # Number of insts issued each cycle
system.cpu0.iq.issued_per_cycle::mean        0.515965                       # Number of insts issued each cycle
system.cpu0.iq.issued_per_cycle::stdev       1.235753                       # Number of insts issued each cycle
system.cpu0.iq.issued_per_cycle::underflows            0      0.00%      0.00% # Number of insts issued each cycle
system.cpu0.iq.issued_per_cycle::0          119068423     77.50%     77.50% # Number of insts issued each cycle
system.cpu0.iq.issued_per_cycle::1           16524198     10.76%     88.26% # Number of insts issued each cycle
system.cpu0.iq.issued_per_cycle::2            6303896      4.10%     92.36% # Number of insts issued each cycle
system.cpu0.iq.issued_per_cycle::3            3893641      2.53%     94.89% # Number of insts issued each cycle
system.cpu0.iq.issued_per_cycle::4            3989888      2.60%     97.49% # Number of insts issued each cycle
system.cpu0.iq.issued_per_cycle::5            1846413      1.20%     98.69% # Number of insts issued each cycle
system.cpu0.iq.issued_per_cycle::6            1110697      0.72%     99.42% # Number of insts issued each cycle
system.cpu0.iq.issued_per_cycle::7             580572      0.38%     99.79% # Number of insts issued each cycle
system.cpu0.iq.issued_per_cycle::8             317187      0.21%    100.00% # Number of insts issued each cycle
system.cpu0.iq.issued_per_cycle::overflows            0      0.00%    100.00% # Number of insts issued each cycle
system.cpu0.iq.issued_per_cycle::min_value            0                       # Number of insts issued each cycle
system.cpu0.iq.issued_per_cycle::max_value            8                       # Number of insts issued each cycle
system.cpu0.iq.issued_per_cycle::total      153634915                       # Number of insts issued each cycle
system.cpu0.iq.fu_full::No_OpClass                  0      0.00%      0.00% # attempts to use FU when none available
system.cpu0.iq.fu_full::IntAlu                 380139     28.57%     28.57% # attempts to use FU when none available
system.cpu0.iq.fu_full::IntMult                     4      0.00%     28.57% # attempts to use FU when none available
system.cpu0.iq.fu_full::IntDiv                      0      0.00%     28.57% # attempts to use FU when none available
system.cpu0.iq.fu_full::FloatAdd                    0      0.00%     28.57% # attempts to use FU when none available
system.cpu0.iq.fu_full::FloatCmp                    0      0.00%     28.57% # attempts to use FU when none available
system.cpu0.iq.fu_full::FloatCvt                    0      0.00%     28.57% # attempts to use FU when none available
system.cpu0.iq.fu_full::FloatMult                   0      0.00%     28.57% # attempts to use FU when none available
system.cpu0.iq.fu_full::FloatDiv                    0      0.00%     28.57% # attempts to use FU when none available
system.cpu0.iq.fu_full::FloatSqrt                   0      0.00%     28.57% # attempts to use FU when none available
system.cpu0.iq.fu_full::SimdAdd                     0      0.00%     28.57% # attempts to use FU when none available
system.cpu0.iq.fu_full::SimdAddAcc                  0      0.00%     28.57% # attempts to use FU when none available
system.cpu0.iq.fu_full::SimdAlu                     0      0.00%     28.57% # attempts to use FU when none available
system.cpu0.iq.fu_full::SimdCmp                     0      0.00%     28.57% # attempts to use FU when none available
system.cpu0.iq.fu_full::SimdCvt                     0      0.00%     28.57% # attempts to use FU when none available
system.cpu0.iq.fu_full::SimdMisc                    0      0.00%     28.57% # attempts to use FU when none available
system.cpu0.iq.fu_full::SimdMult                    0      0.00%     28.57% # attempts to use FU when none available
system.cpu0.iq.fu_full::SimdMultAcc                 0      0.00%     28.57% # attempts to use FU when none available
system.cpu0.iq.fu_full::SimdShift                   0      0.00%     28.57% # attempts to use FU when none available
system.cpu0.iq.fu_full::SimdShiftAcc                0      0.00%     28.57% # attempts to use FU when none available
system.cpu0.iq.fu_full::SimdSqrt                    0      0.00%     28.57% # attempts to use FU when none available
system.cpu0.iq.fu_full::SimdFloatAdd                0      0.00%     28.57% # attempts to use FU when none available
system.cpu0.iq.fu_full::SimdFloatAlu                0      0.00%     28.57% # attempts to use FU when none available
system.cpu0.iq.fu_full::SimdFloatCmp                0      0.00%     28.57% # attempts to use FU when none available
system.cpu0.iq.fu_full::SimdFloatCvt                0      0.00%     28.57% # attempts to use FU when none available
system.cpu0.iq.fu_full::SimdFloatDiv                0      0.00%     28.57% # attempts to use FU when none available
system.cpu0.iq.fu_full::SimdFloatMisc               0      0.00%     28.57% # attempts to use FU when none available
system.cpu0.iq.fu_full::SimdFloatMult               0      0.00%     28.57% # attempts to use FU when none available
system.cpu0.iq.fu_full::SimdFloatMultAcc            0      0.00%     28.57% # attempts to use FU when none available
system.cpu0.iq.fu_full::SimdFloatSqrt               0      0.00%     28.57% # attempts to use FU when none available
system.cpu0.iq.fu_full::MemRead                582780     43.79%     72.36% # attempts to use FU when none available
system.cpu0.iq.fu_full::MemWrite               367824     27.64%    100.00% # attempts to use FU when none available
system.cpu0.iq.fu_full::IprAccess                   0      0.00%    100.00% # attempts to use FU when none available
system.cpu0.iq.fu_full::InstPrefetch                0      0.00%    100.00% # attempts to use FU when none available
system.cpu0.iq.FU_type_0::No_OpClass             5578      0.01%      0.01% # Type of FU issued
system.cpu0.iq.FU_type_0::IntAlu             57039492     71.96%     71.96% # Type of FU issued
system.cpu0.iq.FU_type_0::IntMult              131304      0.17%     72.13% # Type of FU issued
system.cpu0.iq.FU_type_0::IntDiv                    0      0.00%     72.13% # Type of FU issued
system.cpu0.iq.FU_type_0::FloatAdd              69243      0.09%     72.22% # Type of FU issued
system.cpu0.iq.FU_type_0::FloatCmp                  0      0.00%     72.22% # Type of FU issued
system.cpu0.iq.FU_type_0::FloatCvt                  0      0.00%     72.22% # Type of FU issued
system.cpu0.iq.FU_type_0::FloatMult                 0      0.00%     72.22% # Type of FU issued
system.cpu0.iq.FU_type_0::FloatDiv               2742      0.00%     72.22% # Type of FU issued
system.cpu0.iq.FU_type_0::FloatSqrt                 0      0.00%     72.22% # Type of FU issued
system.cpu0.iq.FU_type_0::SimdAdd                   0      0.00%     72.22% # Type of FU issued
system.cpu0.iq.FU_type_0::SimdAddAcc                0      0.00%     72.22% # Type of FU issued
system.cpu0.iq.FU_type_0::SimdAlu                   0      0.00%     72.22% # Type of FU issued
system.cpu0.iq.FU_type_0::SimdCmp                   0      0.00%     72.22% # Type of FU issued
system.cpu0.iq.FU_type_0::SimdCvt                   0      0.00%     72.22% # Type of FU issued
system.cpu0.iq.FU_type_0::SimdMisc                  0      0.00%     72.22% # Type of FU issued
system.cpu0.iq.FU_type_0::SimdMult                  0      0.00%     72.22% # Type of FU issued
system.cpu0.iq.FU_type_0::SimdMultAcc               0      0.00%     72.22% # Type of FU issued
system.cpu0.iq.FU_type_0::SimdShift                 0      0.00%     72.22% # Type of FU issued
system.cpu0.iq.FU_type_0::SimdShiftAcc              0      0.00%     72.22% # Type of FU issued
[...]
system.cpu1.dcache.overall_mshr_hits::cpu1.data        18699                       # number of overall MSHR hits
system.cpu1.dcache.overall_mshr_hits::total        18699                       # number of overall MSHR hits
system.cpu1.dcache.ReadReq_mshr_misses::cpu1.data         2546                       # number of ReadReq MSHR misses
system.cpu1.dcache.ReadReq_mshr_misses::total         2546                       # number of ReadReq MSHR misses
system.cpu1.dcache.WriteReq_mshr_misses::cpu1.data         2071                       # number of WriteReq MSHR misses
system.cpu1.dcache.WriteReq_mshr_misses::total         2071                       # number of WriteReq MSHR misses
system.cpu1.dcache.LoadLockedReq_mshr_misses::cpu1.data          109                       # number of LoadLockedReq MSHR misses
system.cpu1.dcache.LoadLockedReq_mshr_misses::total          109                       # number of LoadLockedReq MSHR misses
system.cpu1.dcache.StoreCondReq_mshr_misses::cpu1.data           19                       # number of StoreCondReq MSHR misses
system.cpu1.dcache.StoreCondReq_mshr_misses::total           19                       # number of StoreCondReq MSHR misses
system.cpu1.dcache.demand_mshr_misses::cpu1.data         4617                       # number of demand (read+write) MSHR misses
system.cpu1.dcache.demand_mshr_misses::total         4617                       # number of demand (read+write) MSHR misses
system.cpu1.dcache.overall_mshr_misses::cpu1.data         4617                       # number of overall MSHR misses
system.cpu1.dcache.overall_mshr_misses::total         4617                       # number of overall MSHR misses
system.cpu1.dcache.ReadReq_mshr_miss_latency::cpu1.data    161768258                       # number of ReadReq MSHR miss cycles
system.cpu1.dcache.ReadReq_mshr_miss_latency::total    161768258                       # number of ReadReq MSHR miss cycles
system.cpu1.dcache.WriteReq_mshr_miss_latency::cpu1.data    139485461                       # number of WriteReq MSHR miss cycles
system.cpu1.dcache.WriteReq_mshr_miss_latency::total    139485461                       # number of WriteReq MSHR miss cycles
system.cpu1.dcache.LoadLockedReq_mshr_miss_latency::cpu1.data      5799500                       # number of LoadLockedReq MSHR miss cycles
system.cpu1.dcache.LoadLockedReq_mshr_miss_latency::total      5799500                       # number of LoadLockedReq MSHR miss cycles
system.cpu1.dcache.StoreCondReq_mshr_miss_latency::cpu1.data        74001                       # number of StoreCondReq MSHR miss cycles
system.cpu1.dcache.StoreCondReq_mshr_miss_latency::total        74001                       # number of StoreCondReq MSHR miss cycles
system.cpu1.dcache.demand_mshr_miss_latency::cpu1.data    301253719                       # number of demand (read+write) MSHR miss cycles
system.cpu1.dcache.demand_mshr_miss_latency::total    301253719                       # number of demand (read+write) MSHR miss cycles
system.cpu1.dcache.overall_mshr_miss_latency::cpu1.data    301253719                       # number of overall MSHR miss cycles
system.cpu1.dcache.overall_mshr_miss_latency::total    301253719                       # number of overall MSHR miss cycles
system.cpu1.dcache.WriteReq_mshr_uncacheable_latency::cpu1.data       606000                       # number of WriteReq MSHR uncacheable cycles
system.cpu1.dcache.WriteReq_mshr_uncacheable_latency::total       606000                       # number of WriteReq MSHR uncacheable cycles
system.cpu1.dcache.overall_mshr_uncacheable_latency::cpu1.data       606000                       # number of overall MSHR uncacheable cycles
system.cpu1.dcache.overall_mshr_uncacheable_latency::total       606000                       # number of overall MSHR uncacheable cycles
system.cpu1.dcache.ReadReq_mshr_miss_rate::cpu1.data     0.061286                       # mshr miss rate for ReadReq accesses
system.cpu1.dcache.ReadReq_mshr_miss_rate::total     0.061286                       # mshr miss rate for ReadReq accesses
system.cpu1.dcache.WriteReq_mshr_miss_rate::cpu1.data     0.067339                       # mshr miss rate for WriteReq accesses
system.cpu1.dcache.WriteReq_mshr_miss_rate::total     0.067339                       # mshr miss rate for WriteReq accesses
system.cpu1.dcache.LoadLockedReq_mshr_miss_rate::cpu1.data     0.155050                       # mshr miss rate for LoadLockedReq accesses
system.cpu1.dcache.LoadLockedReq_mshr_miss_rate::total     0.155050                       # mshr miss rate for LoadLockedReq accesses
system.cpu1.dcache.StoreCondReq_mshr_miss_rate::cpu1.data     0.029186                       # mshr miss rate for StoreCondReq accesses
system.cpu1.dcache.StoreCondReq_mshr_miss_rate::total     0.029186                       # mshr miss rate for StoreCondReq accesses
system.cpu1.dcache.demand_mshr_miss_rate::cpu1.data     0.063861                       # mshr miss rate for demand accesses
system.cpu1.dcache.demand_mshr_miss_rate::total     0.063861                       # mshr miss rate for demand accesses
system.cpu1.dcache.overall_mshr_miss_rate::cpu1.data     0.063861                       # mshr miss rate for overall accesses
system.cpu1.dcache.overall_mshr_miss_rate::total     0.063861                       # mshr miss rate for overall accesses
system.cpu1.dcache.ReadReq_avg_mshr_miss_latency::cpu1.data 63538.200314                       # average ReadReq mshr miss latency
system.cpu1.dcache.ReadReq_avg_mshr_miss_latency::total 63538.200314                       # average ReadReq mshr miss latency
system.cpu1.dcache.WriteReq_avg_mshr_miss_latency::cpu1.data 67351.743602                       # average WriteReq mshr miss latency
system.cpu1.dcache.WriteReq_avg_mshr_miss_latency::total 67351.743602                       # average WriteReq mshr miss latency
system.cpu1.dcache.LoadLockedReq_avg_mshr_miss_latency::cpu1.data 53206.422018                       # average LoadLockedReq mshr miss latency
system.cpu1.dcache.LoadLockedReq_avg_mshr_miss_latency::total 53206.422018                       # average LoadLockedReq mshr miss latency
system.cpu1.dcache.StoreCondReq_avg_mshr_miss_latency::cpu1.data  3894.789474                       # average StoreCondReq mshr miss latency
system.cpu1.dcache.StoreCondReq_avg_mshr_miss_latency::total  3894.789474                       # average StoreCondReq mshr miss latency
system.cpu1.dcache.demand_avg_mshr_miss_latency::cpu1.data 65248.802036                       # average overall mshr miss latency
system.cpu1.dcache.demand_avg_mshr_miss_latency::total 65248.802036                       # average overall mshr miss latency
system.cpu1.dcache.overall_avg_mshr_miss_latency::cpu1.data 65248.802036                       # average overall mshr miss latency
system.cpu1.dcache.overall_avg_mshr_miss_latency::total 65248.802036                       # average overall mshr miss latency
system.cpu1.dcache.WriteReq_avg_mshr_uncacheable_latency::cpu1.data          inf                       # average WriteReq mshr uncacheable latency
system.cpu1.dcache.WriteReq_avg_mshr_uncacheable_latency::total          inf                       # average WriteReq mshr uncacheable latency
system.cpu1.dcache.overall_avg_mshr_uncacheable_latency::cpu1.data          inf                       # average overall mshr uncacheable latency
system.cpu1.dcache.overall_avg_mshr_uncacheable_latency::total          inf                       # average overall mshr uncacheable latency
system.cpu1.dcache.no_allocate_misses               0                       # Number of misses that were no-allocate
system.cpu0.kern.inst.arm                           0                       # number of arm instructions executed
system.cpu0.kern.inst.quiesce                       0                       # number of quiesce instructions executed
system.cpu0.kern.inst.hwrei                      1992                       # number of hwrei instructions executed
system.cpu0.kern.ipl_count::0                     339     49.34%     49.34% # number of times we switched to this ipl
system.cpu0.kern.ipl_count::22                      1      0.15%     49.49% # number of times we switched to this ipl
system.cpu0.kern.ipl_count::30                      1      0.15%     49.64% # number of times we switched to this ipl
system.cpu0.kern.ipl_count::31                    346     50.36%    100.00% # number of times we switched to this ipl
system.cpu0.kern.ipl_count::total                 687                       # number of times we switched to this ipl
system.cpu0.kern.ipl_good::0                      337     49.93%     49.93% # number of times we switched to this ipl from a different ipl
system.cpu0.kern.ipl_good::22                       1      0.15%     50.07% # number of times we switched to this ipl from a different ipl
system.cpu0.kern.ipl_good::30                       1      0.15%     50.22% # number of times we switched to this ipl from a different ipl
system.cpu0.kern.ipl_good::31                     336     49.78%    100.00% # number of times we switched to this ipl from a different ipl
system.cpu0.kern.ipl_good::total                  675                       # number of times we switched to this ipl from a different ipl
system.cpu0.kern.ipl_ticks::0              1427489000     94.54%     94.54% # number of cycles we spent at this ipl
system.cpu0.kern.ipl_ticks::22                1011000      0.07%     94.61% # number of cycles we spent at this ipl
system.cpu0.kern.ipl_ticks::30                 688000      0.05%     94.66% # number of cycles we spent at this ipl
system.cpu0.kern.ipl_ticks::31               80688000      5.34%    100.00% # number of cycles we spent at this ipl
system.cpu0.kern.ipl_ticks::total          1509876000                       # number of cycles we spent at this ipl
system.cpu0.kern.ipl_used::0                 0.994100                       # fraction of swpipl calls that actually changed the ipl
system.cpu0.kern.ipl_used::22                       1                       # fraction of swpipl calls that actually changed the ipl
system.cpu0.kern.ipl_used::30                       1                       # fraction of swpipl calls that actually changed the ipl
system.cpu0.kern.ipl_used::31                0.971098                       # fraction of swpipl calls that actually changed the ipl
system.cpu0.kern.ipl_used::total             0.982533                       # fraction of swpipl calls that actually changed the ipl
system.cpu0.kern.syscall::3                         1      6.67%      6.67% # number of syscalls executed
system.cpu0.kern.syscall::6                         2     13.33%     20.00% # number of syscalls executed
system.cpu0.kern.syscall::17                        1      6.67%     26.67% # number of syscalls executed
system.cpu0.kern.syscall::33                        1      6.67%     33.33% # number of syscalls executed
system.cpu0.kern.syscall::45                        3     20.00%     53.33% # number of syscalls executed
system.cpu0.kern.syscall::48                        1      6.67%     60.00% # number of syscalls executed
system.cpu0.kern.syscall::59                        1      6.67%     66.67% # number of syscalls executed
system.cpu0.kern.syscall::71                        4     26.67%     93.33% # number of syscalls executed
system.cpu0.kern.syscall::74                        1      6.67%    100.00% # number of syscalls executed
system.cpu0.kern.syscall::total                    15                       # number of syscalls executed
system.cpu0.kern.callpal::wripir                    1      0.12%      0.12% # number of callpals executed
system.cpu0.kern.callpal::swpctx                  109     13.09%     13.21% # number of callpals executed
system.cpu0.kern.callpal::tbi                       5      0.60%     13.81% # number of callpals executed
system.cpu0.kern.callpal::swpipl                  515     61.82%     75.63% # number of callpals executed
system.cpu0.kern.callpal::rdps                      4      0.48%     76.11% # number of callpals executed
system.cpu0.kern.callpal::wrusp                     1      0.12%     76.23% # number of callpals executed
system.cpu0.kern.callpal::rti                     170     20.41%     96.64% # number of callpals executed
system.cpu0.kern.callpal::callsys                  24      2.88%     99.52% # number of callpals executed
system.cpu0.kern.callpal::imb                       4      0.48%    100.00% # number of callpals executed
system.cpu0.kern.callpal::total                   833                       # number of callpals executed
system.cpu0.kern.mode_switch::kernel              278                       # number of protection mode switches
system.cpu0.kern.mode_switch::user                166                       # number of protection mode switches
system.cpu0.kern.mode_switch::idle                  0                       # number of protection mode switches
system.cpu0.kern.mode_good::kernel                165                      
system.cpu0.kern.mode_good::user                  166                      
system.cpu0.kern.mode_good::idle                    0                      
system.cpu0.kern.mode_switch_good::kernel     0.593525                       # fraction of useful protection mode switches
system.cpu0.kern.mode_switch_good::user             1                       # fraction of useful protection mode switches
system.cpu0.kern.mode_switch_good::idle           nan                       # fraction of useful protection mode switches
system.cpu0.kern.mode_switch_good::total     0.745495                       # fraction of useful protection mode switches
system.cpu0.kern.mode_ticks::kernel        1979618000     85.76%     85.76% # number of ticks spent at the given mode
system.cpu0.kern.mode_ticks::user           328698000     14.24%    100.00% # number of ticks spent at the given mode
system.cpu0.kern.mode_ticks::idle                   0      0.00%    100.00% # number of ticks spent at the given mode
system.cpu0.kern.swap_context                     109                       # number of times the context was actually changed
system.cpu1.kern.inst.arm                           0                       # number of arm instructions executed
system.cpu1.kern.inst.quiesce                       3                       # number of quiesce instructions executed
system.cpu1.kern.inst.hwrei                       624                       # number of hwrei instructions executed
system.cpu1.kern.ipl_count::0                     170     46.58%     46.58% # number of times we switched to this ipl
system.cpu1.kern.ipl_count::22                      1      0.27%     46.85% # number of times we switched to this ipl
system.cpu1.kern.ipl_count::30                      1      0.27%     47.12% # number of times we switched to this ipl
system.cpu1.kern.ipl_count::31                    193     52.88%    100.00% # number of times we switched to this ipl
system.cpu1.kern.ipl_count::total                 365                       # number of times we switched to this ipl
system.cpu1.kern.ipl_good::0                      170     49.85%     49.85% # number of times we switched to this ipl from a different ipl
system.cpu1.kern.ipl_good::22                       1      0.29%     50.15% # number of times we switched to this ipl from a different ipl
system.cpu1.kern.ipl_good::30                       1      0.29%     50.44% # number of times we switched to this ipl from a different ipl
system.cpu1.kern.ipl_good::31                     169     49.56%    100.00% # number of times we switched to this ipl from a different ipl
system.cpu1.kern.ipl_good::total                  341                       # number of times we switched to this ipl from a different ipl
system.cpu1.kern.ipl_ticks::0               728892000     91.73%     91.73% # number of cycles we spent at this ipl
system.cpu1.kern.ipl_ticks::22                 570000      0.07%     91.80% # number of cycles we spent at this ipl
system.cpu1.kern.ipl_ticks::30                1854000      0.23%     92.03% # number of cycles we spent at this ipl
system.cpu1.kern.ipl_ticks::31               63330000      7.97%    100.00% # number of cycles we spent at this ipl
system.cpu1.kern.ipl_ticks::total           794646000                       # number of cycles we spent at this ipl
system.cpu1.kern.ipl_used::0                        1                       # fraction of swpipl calls that actually changed the ipl
system.cpu1.kern.ipl_used::22                       1                       # fraction of swpipl calls that actually changed the ipl
system.cpu1.kern.ipl_used::30                       1                       # fraction of swpipl calls that actually changed the ipl
system.cpu1.kern.ipl_used::31                0.875648                       # fraction of swpipl calls that actually changed the ipl
system.cpu1.kern.ipl_used::total             0.934247                       # fraction of swpipl calls that actually changed the ipl
system.cpu1.kern.syscall::2                         1     50.00%     50.00% # number of syscalls executed
system.cpu1.kern.syscall::3                         1     50.00%    100.00% # number of syscalls executed
system.cpu1.kern.syscall::total                     2                       # number of syscalls executed
system.cpu1.kern.callpal::wripir                    1      0.26%      0.26% # number of callpals executed
system.cpu1.kern.callpal::swpctx                   13      3.32%      3.58% # number of callpals executed
system.cpu1.kern.callpal::tbi                       1      0.26%      3.84% # number of callpals executed
system.cpu1.kern.callpal::swpipl                  342     87.47%     91.30% # number of callpals executed
system.cpu1.kern.callpal::rdps                      2      0.51%     91.82% # number of callpals executed
system.cpu1.kern.callpal::rdusp                     1      0.26%     92.07% # number of callpals executed
system.cpu1.kern.callpal::rti                      21      5.37%     97.44% # number of callpals executed
system.cpu1.kern.callpal::callsys                  10      2.56%    100.00% # number of callpals executed
system.cpu1.kern.callpal::total                   391                       # number of callpals executed
system.cpu1.kern.mode_switch::kernel               32                       # number of protection mode switches
system.cpu1.kern.mode_switch::user                 19                       # number of protection mode switches
system.cpu1.kern.mode_switch::idle                  3                       # number of protection mode switches
system.cpu1.kern.mode_good::kernel                 20                      
system.cpu1.kern.mode_good::user                   19                      
system.cpu1.kern.mode_good::idle                    1                      
system.cpu1.kern.mode_switch_good::kernel     0.625000                       # fraction of useful protection mode switches
system.cpu1.kern.mode_switch_good::user             1                       # fraction of useful protection mode switches
system.cpu1.kern.mode_switch_good::idle      0.333333                       # fraction of useful protection mode switches
system.cpu1.kern.mode_switch_good::total     0.740741                       # fraction of useful protection mode switches
system.cpu1.kern.mode_ticks::kernel         255045000     70.37%     70.37% # number of ticks spent at the given mode
system.cpu1.kern.mode_ticks::user           107370000     29.63%    100.00% # number of ticks spent at the given mode
system.cpu1.kern.mode_ticks::idle                   0      0.00%    100.00% # number of ticks spent at the given mode
system.cpu1.kern.swap_context                      13                       # number of times the context was actually changed

---------- End Simulation Statistics   ----------
