
---------- Begin Simulation Statistics ----------
sim_seconds                                  3.086682                       # Number of seconds simulated
sim_ticks                                3086681610000                       # Number of ticks simulated
final_tick                               3086681610000                       # Number of ticks from beginning of simulation (restored from checkpoints and never reset)
sim_freq                                 1000000000000                       # Frequency of simulated ticks
host_inst_rate                                 238941                       # Simulator instruction rate (inst/s)
host_op_rate                                   238941                       # Simulator op (including micro ops) rate (op/s)
host_tick_rate                             6460139399                       # Simulator tick rate (ticks/s)
host_mem_usage                                 469232                       # Number of bytes of host memory used
host_seconds                                   477.80                       # Real time elapsed on the host
sim_insts                                   114167123                       # Number of instructions simulated
sim_ops                                     114167123                       # Number of ops (including micro ops) simulated
system.voltage_domain.voltage                       1                       # Voltage in Volts
system.clk_domain.clock                          1000                       # Clock period in ticks
system.mem_ctrls.bytes_read::cpu0.inst       52505856                       # Number of bytes read from this memory
system.mem_ctrls.bytes_read::cpu0.data      158122496                       # Number of bytes read from this memory
system.mem_ctrls.bytes_read::tsunami.ide         4288                       # Number of bytes read from this memory
system.mem_ctrls.bytes_read::cpu1.inst        5631808                       # Number of bytes read from this memory
system.mem_ctrls.bytes_read::cpu1.data        1620608                       # Number of bytes read from this memory
system.mem_ctrls.bytes_read::cpu2.inst       37175680                       # Number of bytes read from this memory
system.mem_ctrls.bytes_read::cpu2.data       15276288                       # Number of bytes read from this memory
system.mem_ctrls.bytes_read::cpu3.inst       26211392                       # Number of bytes read from this memory
system.mem_ctrls.bytes_read::cpu3.data        4897728                       # Number of bytes read from this memory
system.mem_ctrls.bytes_read::total          301446144                       # Number of bytes read from this memory
system.mem_ctrls.bytes_inst_read::cpu0.inst     52505856                       # Number of instructions bytes read from this memory
system.mem_ctrls.bytes_inst_read::cpu1.inst      5631808                       # Number of instructions bytes read from this memory
system.mem_ctrls.bytes_inst_read::cpu2.inst     37175680                       # Number of instructions bytes read from this memory
system.mem_ctrls.bytes_inst_read::cpu3.inst     26211392                       # Number of instructions bytes read from this memory
system.mem_ctrls.bytes_inst_read::total     121524736                       # Number of instructions bytes read from this memory
system.mem_ctrls.bytes_written::writebacks     29177792                       # Number of bytes written to this memory
system.mem_ctrls.bytes_written::tsunami.ide      2832384                       # Number of bytes written to this memory
system.mem_ctrls.bytes_written::total        32010176                       # Number of bytes written to this memory
system.mem_ctrls.num_reads::cpu0.inst          820404                       # Number of read requests responded to by this memory
system.mem_ctrls.num_reads::cpu0.data         2470664                       # Number of read requests responded to by this memory
system.mem_ctrls.num_reads::tsunami.ide            67                       # Number of read requests responded to by this memory
system.mem_ctrls.num_reads::cpu1.inst           87997                       # Number of read requests responded to by this memory
system.mem_ctrls.num_reads::cpu1.data           25322                       # Number of read requests responded to by this memory
system.mem_ctrls.num_reads::cpu2.inst          580870                       # Number of read requests responded to by this memory
system.mem_ctrls.num_reads::cpu2.data          238692                       # Number of read requests responded to by this memory
system.mem_ctrls.num_reads::cpu3.inst          409553                       # Number of read requests responded to by this memory
system.mem_ctrls.num_reads::cpu3.data           76527                       # Number of read requests responded to by this memory
system.mem_ctrls.num_reads::total             4710096                       # Number of read requests responded to by this memory
system.mem_ctrls.num_writes::writebacks        455903                       # Number of write requests responded to by this memory
system.mem_ctrls.num_writes::tsunami.ide        44256                       # Number of write requests responded to by this memory
system.mem_ctrls.num_writes::total             500159                       # Number of write requests responded to by this memory
system.mem_ctrls.bw_read::cpu0.inst          17010454                       # Total read bandwidth from this memory (bytes/s)
system.mem_ctrls.bw_read::cpu0.data          51227342                       # Total read bandwidth from this memory (bytes/s)
system.mem_ctrls.bw_read::tsunami.ide            1389                       # Total read bandwidth from this memory (bytes/s)
system.mem_ctrls.bw_read::cpu1.inst           1824551                       # Total read bandwidth from this memory (bytes/s)
system.mem_ctrls.bw_read::cpu1.data            525032                       # Total read bandwidth from this memory (bytes/s)
system.mem_ctrls.bw_read::cpu2.inst          12043898                       # Total read bandwidth from this memory (bytes/s)
system.mem_ctrls.bw_read::cpu2.data           4949097                       # Total read bandwidth from this memory (bytes/s)
system.mem_ctrls.bw_read::cpu3.inst           8491771                       # Total read bandwidth from this memory (bytes/s)
system.mem_ctrls.bw_read::cpu3.data           1586729                       # Total read bandwidth from this memory (bytes/s)
system.mem_ctrls.bw_read::total              97660265                       # Total read bandwidth from this memory (bytes/s)
system.mem_ctrls.bw_inst_read::cpu0.inst     17010454                       # Instruction read bandwidth from this memory (bytes/s)
system.mem_ctrls.bw_inst_read::cpu1.inst      1824551                       # Instruction read bandwidth from this memory (bytes/s)
system.mem_ctrls.bw_inst_read::cpu2.inst     12043898                       # Instruction read bandwidth from this memory (bytes/s)
system.mem_ctrls.bw_inst_read::cpu3.inst      8491771                       # Instruction read bandwidth from this memory (bytes/s)
system.mem_ctrls.bw_inst_read::total         39370674                       # Instruction read bandwidth from this memory (bytes/s)
system.mem_ctrls.bw_write::writebacks         9452803                       # Write bandwidth from this memory (bytes/s)
system.mem_ctrls.bw_write::tsunami.ide         917615                       # Write bandwidth from this memory (bytes/s)
system.mem_ctrls.bw_write::total             10370417                       # Write bandwidth from this memory (bytes/s)
system.mem_ctrls.bw_total::writebacks         9452803                       # Total bandwidth to/from this memory (bytes/s)
system.mem_ctrls.bw_total::cpu0.inst         17010454                       # Total bandwidth to/from this memory (bytes/s)
system.mem_ctrls.bw_total::cpu0.data         51227342                       # Total bandwidth to/from this memory (bytes/s)
system.mem_ctrls.bw_total::tsunami.ide         919004                       # Total bandwidth to/from this memory (bytes/s)
system.mem_ctrls.bw_total::cpu1.inst          1824551                       # Total bandwidth to/from this memory (bytes/s)
system.mem_ctrls.bw_total::cpu1.data           525032                       # Total bandwidth to/from this memory (bytes/s)
system.mem_ctrls.bw_total::cpu2.inst         12043898                       # Total bandwidth to/from this memory (bytes/s)
system.mem_ctrls.bw_total::cpu2.data          4949097                       # Total bandwidth to/from this memory (bytes/s)
system.mem_ctrls.bw_total::cpu3.inst          8491771                       # Total bandwidth to/from this memory (bytes/s)
system.mem_ctrls.bw_total::cpu3.data          1586729                       # Total bandwidth to/from this memory (bytes/s)
system.mem_ctrls.bw_total::total            108030682                       # Total bandwidth to/from this memory (bytes/s)
system.mem_ctrls.readReqs                     4710096                       # Number of read requests accepted
system.mem_ctrls.writeReqs                     500159                       # Number of write requests accepted
system.mem_ctrls.readBursts                   4710096                       # Number of DRAM read bursts, including those serviced by the write queue
system.mem_ctrls.writeBursts                   500159                       # Number of DRAM write bursts, including those merged in the write queue
system.mem_ctrls.bytesReadDRAM              299363200                       # Total number of bytes read from DRAM
system.mem_ctrls.bytesReadWrQ                 2082944                       # Total number of bytes read from write queue
system.mem_ctrls.bytesWritten                31826048                       # Total number of bytes written to DRAM
system.mem_ctrls.bytesReadSys               301446144                       # Total read bytes from the system interface side
system.mem_ctrls.bytesWrittenSys             32010176                       # Total written bytes from the system interface side
system.mem_ctrls.servicedByWrQ                  32546                       # Number of DRAM read bursts serviced by the write queue
system.mem_ctrls.mergedWrBursts                  2850                       # Number of DRAM write bursts merged with an existing one
system.mem_ctrls.neitherReadNorWriteReqs        34321                       # Number of requests that are neither read nor write
system.mem_ctrls.perBankRdBursts::0            375552                       # Per bank write bursts
system.mem_ctrls.perBankRdBursts::1            315623                       # Per bank write bursts
system.mem_ctrls.perBankRdBursts::2            398028                       # Per bank write bursts
system.mem_ctrls.perBankRdBursts::3            166571                       # Per bank write bursts
system.mem_ctrls.perBankRdBursts::4            240902                       # Per bank write bursts
system.mem_ctrls.perBankRdBursts::5            231266                       # Per bank write bursts
system.mem_ctrls.perBankRdBursts::6            227309                       # Per bank write bursts
system.mem_ctrls.perBankRdBursts::7            213333                       # Per bank write bursts
system.mem_ctrls.perBankRdBursts::8            467083                       # Per bank write bursts
system.mem_ctrls.perBankRdBursts::9            361391                       # Per bank write bursts
system.mem_ctrls.perBankRdBursts::10           284470                       # Per bank write bursts
system.mem_ctrls.perBankRdBursts::11           297200                       # Per bank write bursts
system.mem_ctrls.perBankRdBursts::12           305910                       # Per bank write bursts
system.mem_ctrls.perBankRdBursts::13           304265                       # Per bank write bursts
system.mem_ctrls.perBankRdBursts::14           287243                       # Per bank write bursts
system.mem_ctrls.perBankRdBursts::15           201404                       # Per bank write bursts
system.mem_ctrls.perBankWrBursts::0             28611                       # Per bank write bursts
system.mem_ctrls.perBankWrBursts::1             34819                       # Per bank write bursts
system.mem_ctrls.perBankWrBursts::2             24290                       # Per bank write bursts
system.mem_ctrls.perBankWrBursts::3             22546                       # Per bank write bursts
system.mem_ctrls.perBankWrBursts::4             23571                       # Per bank write bursts
system.mem_ctrls.perBankWrBursts::5             24243                       # Per bank write bursts
system.mem_ctrls.perBankWrBursts::6             27915                       # Per bank write bursts
system.mem_ctrls.perBankWrBursts::7             33970                       # Per bank write bursts
system.mem_ctrls.perBankWrBursts::8             26445                       # Per bank write bursts
system.mem_ctrls.perBankWrBursts::9             55548                       # Per bank write bursts
system.mem_ctrls.perBankWrBursts::10            29715                       # Per bank write bursts
system.mem_ctrls.perBankWrBursts::11            44447                       # Per bank write bursts
system.mem_ctrls.perBankWrBursts::12            30867                       # Per bank write bursts
system.mem_ctrls.perBankWrBursts::13            24121                       # Per bank write bursts
system.mem_ctrls.perBankWrBursts::14            30589                       # Per bank write bursts
system.mem_ctrls.perBankWrBursts::15            35585                       # Per bank write bursts
system.mem_ctrls.numRdRetry                         0                       # Number of times read queue was full causing retry
system.mem_ctrls.numWrRetry                        22                       # Number of times write queue was full causing retry
system.mem_ctrls.totGap                  3086681450000                       # Total gap between requests
system.mem_ctrls.readPktSize::0                     0                       # Read request sizes (log2)
system.mem_ctrls.readPktSize::1                     0                       # Read request sizes (log2)
system.mem_ctrls.readPktSize::2                     0                       # Read request sizes (log2)
system.mem_ctrls.readPktSize::3                     0                       # Read request sizes (log2)
system.mem_ctrls.readPktSize::4                     0                       # Read request sizes (log2)
system.mem_ctrls.readPktSize::5                     0                       # Read request sizes (log2)
system.mem_ctrls.readPktSize::6               4710096                       # Read request sizes (log2)
system.mem_ctrls.writePktSize::0                    0                       # Write request sizes (log2)
system.mem_ctrls.writePktSize::1                    0                       # Write request sizes (log2)
system.mem_ctrls.writePktSize::2                    0                       # Write request sizes (log2)
system.mem_ctrls.writePktSize::3                    0                       # Write request sizes (log2)
system.mem_ctrls.writePktSize::4                    0                       # Write request sizes (log2)
system.mem_ctrls.writePktSize::5                    0                       # Write request sizes (log2)
system.mem_ctrls.writePktSize::6               500159                       # Write request sizes (log2)
system.mem_ctrls.rdQLenPdf::0                 4097332                       # What read queue length does an incoming req see
system.mem_ctrls.rdQLenPdf::1                  501255                       # What read queue length does an incoming req see
system.mem_ctrls.rdQLenPdf::2                   57386                       # What read queue length does an incoming req see
system.mem_ctrls.rdQLenPdf::3                   20381                       # What read queue length does an incoming req see
system.mem_ctrls.rdQLenPdf::4                     976                       # What read queue length does an incoming req see
system.mem_ctrls.rdQLenPdf::5                     163                       # What read queue length does an incoming req see
system.mem_ctrls.rdQLenPdf::6                      30                       # What read queue length does an incoming req see
system.mem_ctrls.rdQLenPdf::7                      10                       # What read queue length does an incoming req see
system.mem_ctrls.rdQLenPdf::8                       5                       # What read queue length does an incoming req see
system.mem_ctrls.rdQLenPdf::9                       2                       # What read queue length does an incoming req see
system.mem_ctrls.rdQLenPdf::10                      1                       # What read queue length does an incoming req see
system.mem_ctrls.rdQLenPdf::11                      1                       # What read queue length does an incoming req see
system.mem_ctrls.rdQLenPdf::12                      2                       # What read queue length does an incoming req see
system.mem_ctrls.rdQLenPdf::13                      1                       # What read queue length does an incoming req see
system.mem_ctrls.rdQLenPdf::14                      1                       # What read queue length does an incoming req see
system.mem_ctrls.rdQLenPdf::15                      1                       # What read queue length does an incoming req see
system.mem_ctrls.rdQLenPdf::16                      1                       # What read queue length does an incoming req see
system.mem_ctrls.rdQLenPdf::17                      1                       # What read queue length does an incoming req see
system.mem_ctrls.rdQLenPdf::18                      1                       # What read queue length does an incoming req see
system.mem_ctrls.rdQLenPdf::19                      0                       # What read queue length does an incoming req see
system.mem_ctrls.rdQLenPdf::20                      0                       # What read queue length does an incoming req see
system.mem_ctrls.rdQLenPdf::21                      0                       # What read queue length does an incoming req see
system.mem_ctrls.rdQLenPdf::22                      0                       # What read queue length does an incoming req see
system.mem_ctrls.rdQLenPdf::23                      0                       # What read queue length does an incoming req see
system.mem_ctrls.rdQLenPdf::24                      0                       # What read queue length does an incoming req see
system.mem_ctrls.rdQLenPdf::25                      0                       # What read queue length does an incoming req see
system.mem_ctrls.rdQLenPdf::26                      0                       # What read queue length does an incoming req see
system.mem_ctrls.rdQLenPdf::27                      0                       # What read queue length does an incoming req see
system.mem_ctrls.rdQLenPdf::28                      0                       # What read queue length does an incoming req see
system.mem_ctrls.rdQLenPdf::29                      0                       # What read queue length does an incoming req see
system.mem_ctrls.rdQLenPdf::30                      0                       # What read queue length does an incoming req see
system.mem_ctrls.rdQLenPdf::31                      0                       # What read queue length does an incoming req see
system.mem_ctrls.wrQLenPdf::0                       1                       # What write queue length does an incoming req see
system.mem_ctrls.wrQLenPdf::1                       1                       # What write queue length does an incoming req see
system.mem_ctrls.wrQLenPdf::2                       1                       # What write queue length does an incoming req see
system.mem_ctrls.wrQLenPdf::3                       1                       # What write queue length does an incoming req see
system.mem_ctrls.wrQLenPdf::4                       1                       # What write queue length does an incoming req see
system.mem_ctrls.wrQLenPdf::5                       1                       # What write queue length does an incoming req see
system.mem_ctrls.wrQLenPdf::6                       1                       # What write queue length does an incoming req see
system.mem_ctrls.wrQLenPdf::7                       1                       # What write queue length does an incoming req see
system.mem_ctrls.wrQLenPdf::8                       1                       # What write queue length does an incoming req see
system.mem_ctrls.wrQLenPdf::9                       1                       # What write queue length does an incoming req see
system.mem_ctrls.wrQLenPdf::10                      1                       # What write queue length does an incoming req see
system.mem_ctrls.wrQLenPdf::11                      1                       # What write queue length does an incoming req see
system.mem_ctrls.wrQLenPdf::12                      1                       # What write queue length does an incoming req see
system.mem_ctrls.wrQLenPdf::13                      1                       # What write queue length does an incoming req see
system.mem_ctrls.wrQLenPdf::14                      1                       # What write queue length does an incoming req see
system.mem_ctrls.wrQLenPdf::15                  11700                       # What write queue length does an incoming req see
system.mem_ctrls.wrQLenPdf::16                  12831                       # What write queue length does an incoming req see
system.mem_ctrls.wrQLenPdf::17                  24530                       # What write queue length does an incoming req see
system.mem_ctrls.wrQLenPdf::18                  27809                       # What write queue length does an incoming req see
system.mem_ctrls.wrQLenPdf::19                  27799                       # What write queue length does an incoming req see
system.mem_ctrls.wrQLenPdf::20                  28198                       # What write queue length does an incoming req see
system.mem_ctrls.wrQLenPdf::21                  28347                       # What write queue length does an incoming req see
system.mem_ctrls.wrQLenPdf::22                  29039                       # What write queue length does an incoming req see
system.mem_ctrls.wrQLenPdf::23                  29481                       # What write queue length does an incoming req see
system.mem_ctrls.wrQLenPdf::24                  30241                       # What write queue length does an incoming req see
system.mem_ctrls.wrQLenPdf::25                  30114                       # What write queue length does an incoming req see
system.mem_ctrls.wrQLenPdf::26                  29976                       # What write queue length does an incoming req see
system.mem_ctrls.wrQLenPdf::27                  29902                       # What write queue length does an incoming req see
system.mem_ctrls.wrQLenPdf::28                  30925                       # What write queue length does an incoming req see
system.mem_ctrls.wrQLenPdf::29                  29892                       # What write queue length does an incoming req see
system.mem_ctrls.wrQLenPdf::30                  29780                       # What write queue length does an incoming req see
system.mem_ctrls.wrQLenPdf::31                  29581                       # What write queue length does an incoming req see
system.mem_ctrls.wrQLenPdf::32                  29431                       # What write queue length does an incoming req see
system.mem_ctrls.wrQLenPdf::33                   1038                       # What write queue length does an incoming req see
system.mem_ctrls.wrQLenPdf::34                    700                       # What write queue length does an incoming req see
system.mem_ctrls.wrQLenPdf::35                    572                       # What write queue length does an incoming req see
system.mem_ctrls.wrQLenPdf::36                    456                       # What write queue length does an incoming req see
system.mem_ctrls.wrQLenPdf::37                    365                       # What write queue length does an incoming req see
system.mem_ctrls.wrQLenPdf::38                    319                       # What write queue length does an incoming req see
system.mem_ctrls.wrQLenPdf::39                    275                       # What write queue length does an incoming req see
system.mem_ctrls.wrQLenPdf::40                    266                       # What write queue length does an incoming req see
system.mem_ctrls.wrQLenPdf::41                    230                       # What write queue length does an incoming req see
system.mem_ctrls.wrQLenPdf::42                    221                       # What write queue length does an incoming req see
system.mem_ctrls.wrQLenPdf::43                    213                       # What write queue length does an incoming req see
system.mem_ctrls.wrQLenPdf::44                    222                       # What write queue length does an incoming req see
system.mem_ctrls.wrQLenPdf::45                    212                       # What write queue length does an incoming req see
system.mem_ctrls.wrQLenPdf::46                    224                       # What write queue length does an incoming req see
system.mem_ctrls.wrQLenPdf::47                    226                       # What write queue length does an incoming req see
system.mem_ctrls.wrQLenPdf::48                    231                       # What write queue length does an incoming req see
system.mem_ctrls.wrQLenPdf::49                    207                       # What write queue length does an incoming req see
system.mem_ctrls.wrQLenPdf::50                    212                       # What write queue length does an incoming req see
system.mem_ctrls.wrQLenPdf::51                    185                       # What write queue length does an incoming req see
system.mem_ctrls.wrQLenPdf::52                    173                       # What write queue length does an incoming req see
system.mem_ctrls.wrQLenPdf::53                    137                       # What write queue length does an incoming req see
system.mem_ctrls.wrQLenPdf::54                    134                       # What write queue length does an incoming req see
system.mem_ctrls.wrQLenPdf::55                    127                       # What write queue length does an incoming req see
system.mem_ctrls.wrQLenPdf::56                    119                       # What write queue length does an incoming req see
system.mem_ctrls.wrQLenPdf::57                    113                       # What write queue length does an incoming req see
system.mem_ctrls.wrQLenPdf::58                    131                       # What write queue length does an incoming req see
system.mem_ctrls.wrQLenPdf::59                    113                       # What write queue length does an incoming req see
system.mem_ctrls.wrQLenPdf::60                    104                       # What write queue length does an incoming req see
system.mem_ctrls.wrQLenPdf::61                     77                       # What write queue length does an incoming req see
system.mem_ctrls.wrQLenPdf::62                     62                       # What write queue length does an incoming req see
system.mem_ctrls.wrQLenPdf::63                     54                       # What write queue length does an incoming req see
system.mem_ctrls.bytesPerActivate::samples      1288158                       # Bytes accessed per row activation
system.mem_ctrls.bytesPerActivate::mean    257.102573                       # Bytes accessed per row activation
system.mem_ctrls.bytesPerActivate::gmean   154.299163                       # Bytes accessed per row activation
system.mem_ctrls.bytesPerActivate::stdev   293.514962                       # Bytes accessed per row activation
system.mem_ctrls.bytesPerActivate::0-127       554651     43.06%     43.06% # Bytes accessed per row activation
system.mem_ctrls.bytesPerActivate::128-255       325809     25.29%     68.35% # Bytes accessed per row activation
system.mem_ctrls.bytesPerActivate::256-383       119366      9.27%     77.62% # Bytes accessed per row activation
system.mem_ctrls.bytesPerActivate::384-511        66323      5.15%     82.77% # Bytes accessed per row activation
system.mem_ctrls.bytesPerActivate::512-639        46732      3.63%     86.39% # Bytes accessed per row activation
system.mem_ctrls.bytesPerActivate::640-767        36149      2.81%     89.20% # Bytes accessed per row activation
system.mem_ctrls.bytesPerActivate::768-895        17067      1.32%     90.52% # Bytes accessed per row activation
system.mem_ctrls.bytesPerActivate::896-1023        12904      1.00%     91.53% # Bytes accessed per row activation
system.mem_ctrls.bytesPerActivate::1024-1151       109157      8.47%    100.00% # Bytes accessed per row activation
system.mem_ctrls.bytesPerActivate::total      1288158                       # Bytes accessed per row activation
system.mem_ctrls.rdPerTurnAround::samples        28471                       # Reads before turning the bus around for writes
system.mem_ctrls.rdPerTurnAround::mean     164.289558                       # Reads before turning the bus around for writes
system.mem_ctrls.rdPerTurnAround::stdev   6123.733663                       # Reads before turning the bus around for writes
system.mem_ctrls.rdPerTurnAround::0-32767        28470    100.00%    100.00% # Reads before turning the bus around for writes
system.mem_ctrls.rdPerTurnAround::1.01581e+06-1.04858e+06            1      0.00%    100.00% # Reads before turning the bus around for writes
system.mem_ctrls.rdPerTurnAround::total         28471                       # Reads before turning the bus around for writes
system.mem_ctrls.wrPerTurnAround::samples        28471                       # Writes before turning the bus around for reads
system.mem_ctrls.wrPerTurnAround::mean      17.466264                       # Writes before turning the bus around for reads
system.mem_ctrls.wrPerTurnAround::gmean     17.217499                       # Writes before turning the bus around for reads
system.mem_ctrls.wrPerTurnAround::stdev      4.770546                       # Writes before turning the bus around for reads
system.mem_ctrls.wrPerTurnAround::16-19         27322     95.96%     95.96% # Writes before turning the bus around for reads
system.mem_ctrls.wrPerTurnAround::20-23           584      2.05%     98.02% # Writes before turning the bus around for reads
system.mem_ctrls.wrPerTurnAround::24-27           143      0.50%     98.52% # Writes before turning the bus around for reads
system.mem_ctrls.wrPerTurnAround::28-31           170      0.60%     99.11% # Writes before turning the bus around for reads
system.mem_ctrls.wrPerTurnAround::32-35            72      0.25%     99.37% # Writes before turning the bus around for reads
system.mem_ctrls.wrPerTurnAround::36-39            31      0.11%     99.48% # Writes before turning the bus around for reads
system.mem_ctrls.wrPerTurnAround::40-43            11      0.04%     99.52% # Writes before turning the bus around for reads
system.mem_ctrls.wrPerTurnAround::44-47            25      0.09%     99.60% # Writes before turning the bus around for reads
system.mem_ctrls.wrPerTurnAround::48-51            13      0.05%     99.65% # Writes before turning the bus around for reads
system.mem_ctrls.wrPerTurnAround::52-55             7      0.02%     99.67% # Writes before turning the bus around for reads
system.mem_ctrls.wrPerTurnAround::56-59             9      0.03%     99.70% # Writes before turning the bus around for reads
system.mem_ctrls.wrPerTurnAround::60-63             5      0.02%     99.72% # Writes before turning the bus around for reads
system.mem_ctrls.wrPerTurnAround::64-67             7      0.02%     99.75% # Writes before turning the bus around for reads
system.mem_ctrls.wrPerTurnAround::68-71             4      0.01%     99.76% # Writes before turning the bus around for reads
system.mem_ctrls.wrPerTurnAround::72-75             4      0.01%     99.78% # Writes before turning the bus around for reads
system.mem_ctrls.wrPerTurnAround::76-79             8      0.03%     99.80% # Writes before turning the bus around for reads
system.mem_ctrls.wrPerTurnAround::80-83             7      0.02%     99.83% # Writes before turning the bus around for reads
system.mem_ctrls.wrPerTurnAround::84-87             5      0.02%     99.85% # Writes before turning the bus around for reads
system.mem_ctrls.wrPerTurnAround::88-91             6      0.02%     99.87% # Writes before turning the bus around for reads
system.mem_ctrls.wrPerTurnAround::92-95             3      0.01%     99.88% # Writes before turning the bus around for reads
system.mem_ctrls.wrPerTurnAround::96-99            11      0.04%     99.92% # Writes before turning the bus around for reads
system.mem_ctrls.wrPerTurnAround::100-103            8      0.03%     99.94% # Writes before turning the bus around for reads
system.mem_ctrls.wrPerTurnAround::104-107            4      0.01%     99.96% # Writes before turning the bus around for reads
system.mem_ctrls.wrPerTurnAround::108-111            2      0.01%     99.96% # Writes before turning the bus around for reads
system.mem_ctrls.wrPerTurnAround::112-115            2      0.01%     99.97% # Writes before turning the bus around for reads
system.mem_ctrls.wrPerTurnAround::116-119            3      0.01%     99.98% # Writes before turning the bus around for reads
system.mem_ctrls.wrPerTurnAround::120-123            2      0.01%     99.99% # Writes before turning the bus around for reads
system.mem_ctrls.wrPerTurnAround::132-135            2      0.01%    100.00% # Writes before turning the bus around for reads
system.mem_ctrls.wrPerTurnAround::168-171            1      0.00%    100.00% # Writes before turning the bus around for reads
system.mem_ctrls.wrPerTurnAround::total         28471                       # Writes before turning the bus around for reads
system.mem_ctrls.totQLat                  44406816357                       # Total ticks spent queuing
system.mem_ctrls.totMemAccLat            132110878857                       # Total ticks spent from burst creation until serviced by the DRAM
system.mem_ctrls.totBusLat                23387750000                       # Total ticks spent in databus transfers
system.mem_ctrls.avgQLat                      9493.61                       # Average queueing delay per DRAM burst
system.mem_ctrls.avgBusLat                    5000.00                       # Average bus latency per DRAM burst
system.mem_ctrls.avgMemAccLat                28243.61                       # Average memory access latency per DRAM burst
system.mem_ctrls.avgRdBW                        96.99                       # Average DRAM read bandwidth in MiByte/s
system.mem_ctrls.avgWrBW                        10.31                       # Average achieved write bandwidth in MiByte/s
system.mem_ctrls.avgRdBWSys                     97.66                       # Average system read bandwidth in MiByte/s
system.mem_ctrls.avgWrBWSys                     10.37                       # Average system write bandwidth in MiByte/s
system.mem_ctrls.peakBW                      12800.00                       # Theoretical peak bandwidth in MiByte/s
system.mem_ctrls.busUtil                         0.84                       # Data bus utilization in percentage
system.mem_ctrls.busUtilRead                     0.76                       # Data bus utilization in percentage for reads
system.mem_ctrls.busUtilWrite                    0.08                       # Data bus utilization in percentage for writes
system.mem_ctrls.avgRdQLen                       1.05                       # Average read queue length when enqueuing
system.mem_ctrls.avgWrQLen                      24.51                       # Average write queue length when enqueuing
system.mem_ctrls.readRowHits                  3550155                       # Number of row buffer hits during reads
system.mem_ctrls.writeRowHits                  336518                       # Number of row buffer hits during writes
system.mem_ctrls.readRowHitRate                 75.90                       # Row buffer hit rate for reads
system.mem_ctrls.writeRowHitRate                67.67                       # Row buffer hit rate for writes
system.mem_ctrls.avgGap                     592424.26                       # Average gap between requests
system.mem_ctrls.pageHitRate                    75.11                       # Row buffer hit rate, read and write combined
system.mem_ctrls.memoryStateTime::IDLE   2224710084999                       # Time in different power states
system.mem_ctrls.memoryStateTime::REF    103071020000                       # Time in different power states
system.mem_ctrls.memoryStateTime::PRE_PDN            0                       # Time in different power states
system.mem_ctrls.memoryStateTime::ACT    758898897501                       # Time in different power states
system.mem_ctrls.memoryStateTime::ACT_PDN            0                       # Time in different power states
system.mem_ctrls.actEnergy::0              4190523120                       # Energy for activate commands per rank (pJ)
system.mem_ctrls.actEnergy::1              5547951360                       # Energy for activate commands per rank (pJ)
system.mem_ctrls.preEnergy::0              2286495750                       # Energy for precharge commands per rank (pJ)
system.mem_ctrls.preEnergy::1              3027156000                       # Energy for precharge commands per rank (pJ)
system.mem_ctrls.readEnergy::0            16914955200                       # Energy for read commands per rank (pJ)
system.mem_ctrls.readEnergy::1            19569872400                       # Energy for read commands per rank (pJ)
system.mem_ctrls.writeEnergy::0            1425373200                       # Energy for write commands per rank (pJ)
system.mem_ctrls.writeEnergy::1            1797014160                       # Energy for write commands per rank (pJ)
system.mem_ctrls.refreshEnergy::0        201606915120                       # Energy for refresh commands per rank (pJ)
system.mem_ctrls.refreshEnergy::1        201606915120                       # Energy for refresh commands per rank (pJ)
system.mem_ctrls.actBackEnergy::0        474892628625                       # Energy for active background per rank (pJ)
system.mem_ctrls.actBackEnergy::1        494488772910                       # Energy for active background per rank (pJ)
system.mem_ctrls.preBackEnergy::0        1435435512000                       # Energy for precharge background per rank (pJ)
system.mem_ctrls.preBackEnergy::1        1418245911750                       # Energy for precharge background per rank (pJ)
system.mem_ctrls.totalEnergy::0          2136752403015                       # Total energy per rank (pJ)
system.mem_ctrls.totalEnergy::1          2144283593700                       # Total energy per rank (pJ)
system.mem_ctrls.averagePower::0           692.249411                       # Core power per rank (mW)
system.mem_ctrls.averagePower::1           694.689311                       # Core power per rank (mW)
system.membus.trans_dist::ReadReq             4583351                       # Transaction distribution
system.membus.trans_dist::ReadResp            4582886                       # Transaction distribution
system.membus.trans_dist::WriteReq              26717                       # Transaction distribution
system.membus.trans_dist::WriteResp             26717                       # Transaction distribution
system.membus.trans_dist::Writeback            455903                       # Transaction distribution
system.membus.trans_dist::WriteInvalidateReq        44256                       # Transaction distribution
system.membus.trans_dist::WriteInvalidateResp        44256                       # Transaction distribution
system.membus.trans_dist::UpgradeReq            91528                       # Transaction distribution
system.membus.trans_dist::SCUpgradeReq          55680                       # Transaction distribution
system.membus.trans_dist::UpgradeResp          147208                       # Transaction distribution
system.membus.trans_dist::SCUpgradeFailReq           17                       # Transaction distribution
system.membus.trans_dist::UpgradeFailResp           17                       # Transaction distribution
system.membus.trans_dist::ReadExReq            355745                       # Transaction distribution
system.membus.trans_dist::ReadExResp           355745                       # Transaction distribution
system.membus.trans_dist::BadAddressError          465                       # Transaction distribution
system.membus.pkt_count_system.iocache.mem_side::system.mem_ctrls.port        88788                       # Packet count per connected master and slave (bytes)
system.membus.pkt_count_system.iocache.mem_side::total        88788                       # Packet count per connected master and slave (bytes)
system.membus.pkt_count_system.cpu0.icache.mem_side::system.mem_ctrls.port      1641116                       # Packet count per connected master and slave (bytes)
system.membus.pkt_count_system.cpu0.icache.mem_side::total      1641116                       # Packet count per connected master and slave (bytes)
system.membus.pkt_count_system.cpu0.dcache.mem_side::system.bridge.slave        31776                       # Packet count per connected master and slave (bytes)
system.membus.pkt_count_system.cpu0.dcache.mem_side::system.mem_ctrls.port      5327980                       # Packet count per connected master and slave (bytes)
system.membus.pkt_count_system.cpu0.dcache.mem_side::system.membus.badaddr_responder.pio          698                       # Packet count per connected master and slave (bytes)
system.membus.pkt_count_system.cpu0.dcache.mem_side::total      5360454                       # Packet count per connected master and slave (bytes)
system.membus.pkt_count_system.cpu1.icache.mem_side::system.mem_ctrls.port       176032                       # Packet count per connected master and slave (bytes)
system.membus.pkt_count_system.cpu1.icache.mem_side::total       176032                       # Packet count per connected master and slave (bytes)
system.membus.pkt_count_system.cpu1.dcache.mem_side::system.bridge.slave         6656                       # Packet count per connected master and slave (bytes)
system.membus.pkt_count_system.cpu1.dcache.mem_side::system.mem_ctrls.port        83496                       # Packet count per connected master and slave (bytes)
system.membus.pkt_count_system.cpu1.dcache.mem_side::system.membus.badaddr_responder.pio           16                       # Packet count per connected master and slave (bytes)
system.membus.pkt_count_system.cpu1.dcache.mem_side::total        90168                       # Packet count per connected master and slave (bytes)
system.membus.pkt_count_system.cpu2.icache.mem_side::system.mem_ctrls.port      1161830                       # Packet count per connected master and slave (bytes)
system.membus.pkt_count_system.cpu2.icache.mem_side::total      1161830                       # Packet count per connected master and slave (bytes)
system.membus.pkt_count_system.cpu2.dcache.mem_side::system.bridge.slave        20382                       # Packet count per connected master and slave (bytes)
system.membus.pkt_count_system.cpu2.dcache.mem_side::system.mem_ctrls.port       705173                       # Packet count per connected master and slave (bytes)
system.membus.pkt_count_system.cpu2.dcache.mem_side::system.membus.badaddr_responder.pio          194                       # Packet count per connected master and slave (bytes)
system.membus.pkt_count_system.cpu2.dcache.mem_side::total       725749                       # Packet count per connected master and slave (bytes)
system.membus.pkt_count_system.cpu3.icache.mem_side::system.mem_ctrls.port       819119                       # Packet count per connected master and slave (bytes)
system.membus.pkt_count_system.cpu3.icache.mem_side::total       819119                       # Packet count per connected master and slave (bytes)
system.membus.pkt_count_system.cpu3.dcache.mem_side::system.bridge.slave         9182                       # Packet count per connected master and slave (bytes)
system.membus.pkt_count_system.cpu3.dcache.mem_side::system.mem_ctrls.port       363873                       # Packet count per connected master and slave (bytes)
system.membus.pkt_count_system.cpu3.dcache.mem_side::system.membus.badaddr_responder.pio           22                       # Packet count per connected master and slave (bytes)
system.membus.pkt_count_system.cpu3.dcache.mem_side::total       373077                       # Packet count per connected master and slave (bytes)
system.membus.pkt_count::total               10436333                       # Packet count per connected master and slave (bytes)
system.membus.pkt_size_system.iocache.mem_side::system.mem_ctrls.port      2836672                       # Cumulative packet size per connected master and slave (bytes)
system.membus.pkt_size_system.iocache.mem_side::total      2836672                       # Cumulative packet size per connected master and slave (bytes)
system.membus.pkt_size_system.cpu0.icache.mem_side::system.mem_ctrls.port     52505856                       # Cumulative packet size per connected master and slave (bytes)
system.membus.pkt_size_system.cpu0.icache.mem_side::total     52505856                       # Cumulative packet size per connected master and slave (bytes)
system.membus.pkt_size_system.cpu0.dcache.mem_side::system.bridge.slave        59526                       # Cumulative packet size per connected master and slave (bytes)
system.membus.pkt_size_system.cpu0.dcache.mem_side::system.mem_ctrls.port    176108928                       # Cumulative packet size per connected master and slave (bytes)
system.membus.pkt_size_system.cpu0.dcache.mem_side::total    176168454                       # Cumulative packet size per connected master and slave (bytes)
system.membus.pkt_size_system.cpu1.icache.mem_side::system.mem_ctrls.port      5631808                       # Cumulative packet size per connected master and slave (bytes)
system.membus.pkt_size_system.cpu1.icache.mem_side::total      5631808                       # Cumulative packet size per connected master and slave (bytes)
system.membus.pkt_size_system.cpu1.dcache.mem_side::system.bridge.slave        26603                       # Cumulative packet size per connected master and slave (bytes)
system.membus.pkt_size_system.cpu1.dcache.mem_side::system.mem_ctrls.port      2292224                       # Cumulative packet size per connected master and slave (bytes)
system.membus.pkt_size_system.cpu1.dcache.mem_side::total      2318827                       # Cumulative packet size per connected master and slave (bytes)
system.membus.pkt_size_system.cpu2.icache.mem_side::system.mem_ctrls.port     37175680                       # Cumulative packet size per connected master and slave (bytes)
system.membus.pkt_size_system.cpu2.icache.mem_side::total     37175680                       # Cumulative packet size per connected master and slave (bytes)
system.membus.pkt_size_system.cpu2.dcache.mem_side::system.bridge.slave        55968                       # Cumulative packet size per connected master and slave (bytes)
system.membus.pkt_size_system.cpu2.dcache.mem_side::system.mem_ctrls.port     21286720                       # Cumulative packet size per connected master and slave (bytes)
system.membus.pkt_size_system.cpu2.dcache.mem_side::total     21342688                       # Cumulative packet size per connected master and slave (bytes)
system.membus.pkt_size_system.cpu3.icache.mem_side::system.mem_ctrls.port     26211392                       # Cumulative packet size per connected master and slave (bytes)
system.membus.pkt_size_system.cpu3.icache.mem_side::total     26211392                       # Cumulative packet size per connected master and slave (bytes)
system.membus.pkt_size_system.cpu3.dcache.mem_side::system.bridge.slave        35808                       # Cumulative packet size per connected master and slave (bytes)
system.membus.pkt_size_system.cpu3.dcache.mem_side::system.mem_ctrls.port      9407040                       # Cumulative packet size per connected master and slave (bytes)
system.membus.pkt_size_system.cpu3.dcache.mem_side::total      9442848                       # Cumulative packet size per connected master and slave (bytes)
system.membus.pkt_size::total               333634225                       # Cumulative packet size per connected master and slave (bytes)
system.membus.snoops                           334158                       # Total snoops (count)
system.membus.snoop_fanout::samples           5579221                       # Request fanout histogram
system.membus.snoop_fanout::mean                    8                       # Request fanout histogram
system.membus.snoop_fanout::stdev                   0                       # Request fanout histogram
system.membus.snoop_fanout::underflows              0      0.00%      0.00% # Request fanout histogram
system.membus.snoop_fanout::0                       0      0.00%      0.00% # Request fanout histogram
system.membus.snoop_fanout::1                       0      0.00%      0.00% # Request fanout histogram
system.membus.snoop_fanout::2                       0      0.00%      0.00% # Request fanout histogram
system.membus.snoop_fanout::3                       0      0.00%      0.00% # Request fanout histogram
system.membus.snoop_fanout::4                       0      0.00%      0.00% # Request fanout histogram
system.membus.snoop_fanout::5                       0      0.00%      0.00% # Request fanout histogram
system.membus.snoop_fanout::6                       0      0.00%      0.00% # Request fanout histogram
system.membus.snoop_fanout::7                       0      0.00%      0.00% # Request fanout histogram
system.membus.snoop_fanout::8                 5579221    100.00%    100.00% # Request fanout histogram
system.membus.snoop_fanout::9                       0      0.00%    100.00% # Request fanout histogram
system.membus.snoop_fanout::overflows               0      0.00%    100.00% # Request fanout histogram
system.membus.snoop_fanout::min_value               8                       # Request fanout histogram
system.membus.snoop_fanout::max_value               8                       # Request fanout histogram
system.membus.snoop_fanout::total             5579221                       # Request fanout histogram
system.membus.reqLayer0.occupancy            60724990                       # Layer occupancy (ticks)
system.membus.reqLayer0.utilization               0.0                       # Layer utilization (%)
system.membus.reqLayer1.occupancy          9582763770                       # Layer occupancy (ticks)
system.membus.reqLayer1.utilization               0.3                       # Layer utilization (%)
system.membus.reqLayer2.occupancy              465000                       # Layer occupancy (ticks)
system.membus.reqLayer2.utilization               0.0                       # Layer utilization (%)
system.membus.respLayer1.occupancy           46215180                       # Layer occupancy (ticks)
system.membus.respLayer1.utilization              0.0                       # Layer utilization (%)
system.membus.respLayer2.occupancy         7670788464                       # Layer occupancy (ticks)
system.membus.respLayer2.utilization              0.2                       # Layer utilization (%)
system.membus.respLayer3.occupancy        23480405823                       # Layer occupancy (ticks)
system.membus.respLayer3.utilization              0.8                       # Layer utilization (%)
system.membus.respLayer4.occupancy          822058985                       # Layer occupancy (ticks)
system.membus.respLayer4.utilization              0.0                       # Layer utilization (%)
system.membus.respLayer5.occupancy          355246822                       # Layer occupancy (ticks)
system.membus.respLayer5.utilization              0.0                       # Layer utilization (%)
system.membus.respLayer6.occupancy         5436173278                       # Layer occupancy (ticks)
system.membus.respLayer6.utilization              0.2                       # Layer utilization (%)
system.membus.respLayer7.occupancy         2946946400                       # Layer occupancy (ticks)
system.membus.respLayer7.utilization              0.1                       # Layer utilization (%)
system.membus.respLayer8.occupancy         3829432131                       # Layer occupancy (ticks)
system.membus.respLayer8.utilization              0.1                       # Layer utilization (%)
system.membus.respLayer9.occupancy         1551249445                       # Layer occupancy (ticks)
system.membus.respLayer9.utilization              0.1                       # Layer utilization (%)
system.iocache.tags.replacements                44449                       # number of replacements
system.iocache.tags.tagsinuse                0.788841                       # Cycle average of tags in use
system.iocache.tags.total_refs                      0                       # Total number of references to valid blocks.
system.iocache.tags.sampled_refs                44449                       # Sample count of references to valid blocks.
system.iocache.tags.avg_refs                        0                       # Average number of references to valid blocks.
system.iocache.tags.warmup_cycle         2934500438000                       # Cycle when the warmup percentage was hit.
system.iocache.tags.occ_blocks::tsunami.ide     0.788841                       # Average occupied blocks per requestor
system.iocache.tags.occ_percent::tsunami.ide     0.049303                       # Average percentage of cache occupancy
system.iocache.tags.occ_percent::total       0.049303                       # Average percentage of cache occupancy
system.iocache.tags.occ_task_id_blocks::1023           16                       # Occupied blocks per task id
system.iocache.tags.age_task_id_blocks_1023::4           16                       # Occupied blocks per task id
system.iocache.tags.occ_task_id_percent::1023            1                       # Percentage of cache occupancy per task id
system.iocache.tags.tag_accesses               400249                       # Number of tag accesses
system.iocache.tags.data_accesses              400249                       # Number of data accesses
system.iocache.WriteInvalidateReq_hits::tsunami.ide        44256                       # number of WriteInvalidateReq hits
system.iocache.WriteInvalidateReq_hits::total        44256                       # number of WriteInvalidateReq hits
system.iocache.ReadReq_misses::tsunami.ide          209                       # number of ReadReq misses
system.iocache.ReadReq_misses::total              209                       # number of ReadReq misses
system.iocache.WriteInvalidateReq_misses::tsunami.ide            8                       # number of WriteInvalidateReq misses
system.iocache.WriteInvalidateReq_misses::total            8                       # number of WriteInvalidateReq misses
system.iocache.demand_misses::tsunami.ide          209                       # number of demand (read+write) misses
system.iocache.demand_misses::total               209                       # number of demand (read+write) misses
system.iocache.overall_misses::tsunami.ide          209                       # number of overall misses
system.iocache.overall_misses::total              209                       # number of overall misses
system.iocache.ReadReq_miss_latency::tsunami.ide     33998604                       # number of ReadReq miss cycles
system.iocache.ReadReq_miss_latency::total     33998604                       # number of ReadReq miss cycles
system.iocache.demand_miss_latency::tsunami.ide     33998604                       # number of demand (read+write) miss cycles
system.iocache.demand_miss_latency::total     33998604                       # number of demand (read+write) miss cycles
system.iocache.overall_miss_latency::tsunami.ide     33998604                       # number of overall miss cycles
system.iocache.overall_miss_latency::total     33998604                       # number of overall miss cycles
system.iocache.ReadReq_accesses::tsunami.ide          209                       # number of ReadReq accesses(hits+misses)
system.iocache.ReadReq_accesses::total            209                       # number of ReadReq accesses(hits+misses)
system.iocache.WriteInvalidateReq_accesses::tsunami.ide        44264                       # number of WriteInvalidateReq accesses(hits+misses)
system.iocache.WriteInvalidateReq_accesses::total        44264                       # number of WriteInvalidateReq accesses(hits+misses)
system.iocache.demand_accesses::tsunami.ide          209                       # number of demand (read+write) accesses
system.iocache.demand_accesses::total             209                       # number of demand (read+write) accesses
system.iocache.overall_accesses::tsunami.ide          209                       # number of overall (read+write) accesses
system.iocache.overall_accesses::total            209                       # number of overall (read+write) accesses
system.iocache.ReadReq_miss_rate::tsunami.ide            1                       # miss rate for ReadReq accesses
system.iocache.ReadReq_miss_rate::total             1                       # miss rate for ReadReq accesses
system.iocache.WriteInvalidateReq_miss_rate::tsunami.ide     0.000181                       # miss rate for WriteInvalidateReq accesses
system.iocache.WriteInvalidateReq_miss_rate::total     0.000181                       # miss rate for WriteInvalidateReq accesses
system.iocache.demand_miss_rate::tsunami.ide            1                       # miss rate for demand accesses
system.iocache.demand_miss_rate::total              1                       # miss rate for demand accesses
system.iocache.overall_miss_rate::tsunami.ide            1                       # miss rate for overall accesses
system.iocache.overall_miss_rate::total             1                       # miss rate for overall accesses
system.iocache.ReadReq_avg_miss_latency::tsunami.ide 162672.746411                       # average ReadReq miss latency
system.iocache.ReadReq_avg_miss_latency::total 162672.746411                       # average ReadReq miss latency
system.iocache.demand_avg_miss_latency::tsunami.ide 162672.746411                       # average overall miss latency
system.iocache.demand_avg_miss_latency::total 162672.746411                       # average overall miss latency
system.iocache.overall_avg_miss_latency::tsunami.ide 162672.746411                       # average overall miss latency
system.iocache.overall_avg_miss_latency::total 162672.746411                       # average overall miss latency
system.iocache.blocked_cycles::no_mshrs           442                       # number of cycles access was blocked
system.iocache.blocked_cycles::no_targets            0                       # number of cycles access was blocked
system.iocache.blocked::no_mshrs                   45                       # number of cycles access was blocked
system.iocache.blocked::no_targets                  0                       # number of cycles access was blocked
system.iocache.avg_blocked_cycles::no_mshrs     9.822222                       # average number of cycles each access was blocked
system.iocache.avg_blocked_cycles::no_targets          nan                       # average number of cycles each access was blocked
system.iocache.fast_writes                      44256                       # number of fast writes performed
system.iocache.cache_copies                         0                       # number of cache copies performed
system.iocache.ReadReq_mshr_misses::tsunami.ide          209                       # number of ReadReq MSHR misses
system.iocache.ReadReq_mshr_misses::total          209                       # number of ReadReq MSHR misses
system.iocache.WriteInvalidateReq_mshr_misses::tsunami.ide        44256                       # number of WriteInvalidateReq MSHR misses
system.iocache.WriteInvalidateReq_mshr_misses::total        44256                       # number of WriteInvalidateReq MSHR misses
system.iocache.demand_mshr_misses::tsunami.ide          209                       # number of demand (read+write) MSHR misses
system.iocache.demand_mshr_misses::total          209                       # number of demand (read+write) MSHR misses
system.iocache.overall_mshr_misses::tsunami.ide          209                       # number of overall MSHR misses
system.iocache.overall_mshr_misses::total          209                       # number of overall MSHR misses
system.iocache.ReadReq_mshr_miss_latency::tsunami.ide     23126604                       # number of ReadReq MSHR miss cycles
system.iocache.ReadReq_mshr_miss_latency::total     23126604                       # number of ReadReq MSHR miss cycles
system.iocache.WriteInvalidateReq_mshr_miss_latency::tsunami.ide   2852575784                       # number of WriteInvalidateReq MSHR miss cycles
system.iocache.WriteInvalidateReq_mshr_miss_latency::total   2852575784                       # number of WriteInvalidateReq MSHR miss cycles
system.iocache.demand_mshr_miss_latency::tsunami.ide     23126604                       # number of demand (read+write) MSHR miss cycles
system.iocache.demand_mshr_miss_latency::total     23126604                       # number of demand (read+write) MSHR miss cycles
system.iocache.overall_mshr_miss_latency::tsunami.ide     23126604                       # number of overall MSHR miss cycles
system.iocache.overall_mshr_miss_latency::total     23126604                       # number of overall MSHR miss cycles
system.iocache.ReadReq_mshr_miss_rate::tsunami.ide            1                       # mshr miss rate for ReadReq accesses
system.iocache.ReadReq_mshr_miss_rate::total            1                       # mshr miss rate for ReadReq accesses
system.iocache.WriteInvalidateReq_mshr_miss_rate::tsunami.ide     0.999819                       # mshr miss rate for WriteInvalidateReq accesses
system.iocache.WriteInvalidateReq_mshr_miss_rate::total     0.999819                       # mshr miss rate for WriteInvalidateReq accesses
system.iocache.demand_mshr_miss_rate::tsunami.ide            1                       # mshr miss rate for demand accesses
system.iocache.demand_mshr_miss_rate::total            1                       # mshr miss rate for demand accesses
system.iocache.overall_mshr_miss_rate::tsunami.ide            1                       # mshr miss rate for overall accesses
system.iocache.overall_mshr_miss_rate::total            1                       # mshr miss rate for overall accesses
system.iocache.ReadReq_avg_mshr_miss_latency::tsunami.ide 110653.607656                       # average ReadReq mshr miss latency
system.iocache.ReadReq_avg_mshr_miss_latency::total 110653.607656                       # average ReadReq mshr miss latency
system.iocache.WriteInvalidateReq_avg_mshr_miss_latency::tsunami.ide 64456.249638                       # average WriteInvalidateReq mshr miss latency
system.iocache.WriteInvalidateReq_avg_mshr_miss_latency::total 64456.249638                       # average WriteInvalidateReq mshr miss latency
system.iocache.demand_avg_mshr_miss_latency::tsunami.ide 110653.607656                       # average overall mshr miss latency
system.iocache.demand_avg_mshr_miss_latency::total 110653.607656                       # average overall mshr miss latency
system.iocache.overall_avg_mshr_miss_latency::tsunami.ide 110653.607656                       # average overall mshr miss latency
system.iocache.overall_avg_mshr_miss_latency::total 110653.607656                       # average overall mshr miss latency
system.iocache.no_allocate_misses                   0                       # Number of misses that were no-allocate
system.disk0.dma_read_full_pages                    0                       # Number of full page size DMA reads (not PRD).
system.disk0.dma_read_bytes                      4096                       # Number of bytes transfered via DMA reads (not PRD).
system.disk0.dma_read_txs                           1                       # Number of DMA read transactions (not PRD).
system.disk0.dma_write_full_pages                 326                       # Number of full page size DMA writes.
system.disk0.dma_write_bytes                  2824192                       # Number of bytes transfered via DMA writes.
system.disk0.dma_write_txs                        365                       # Number of DMA write transactions.
system.disk2.dma_read_full_pages                    0                       # Number of full page size DMA reads (not PRD).
system.disk2.dma_read_bytes                         0                       # Number of bytes transfered via DMA reads (not PRD).
system.disk2.dma_read_txs                           0                       # Number of DMA read transactions (not PRD).
system.disk2.dma_write_full_pages                   1                       # Number of full page size DMA writes.
system.disk2.dma_write_bytes                     8192                       # Number of bytes transfered via DMA writes.
system.disk2.dma_write_txs                          1                       # Number of DMA write transactions.
system.cpu0.branchPred.lookups               20260240                       # Number of BP lookups
system.cpu0.branchPred.condPredicted         17193651                       # Number of conditional branches predicted
system.cpu0.branchPred.condIncorrect           372707                       # Number of conditional branches incorrect
system.cpu0.branchPred.BTBLookups            12740705                       # Number of BTB lookups
system.cpu0.branchPred.BTBHits                8593923                       # Number of BTB hits
system.cpu0.branchPred.BTBCorrect                   0                       # Number of correct BTB predictions (this stat may not work properly.
system.cpu0.branchPred.BTBHitPct            67.452492                       # BTB Hit Percentage
system.cpu0.branchPred.usedRAS                1263329                       # Number of times the RAS was used to get a target.
system.cpu0.branchPred.RASInCorrect             18471                       # Number of incorrect RAS predictions.
system.cpu_voltage_domain.voltage                   1                       # Voltage in Volts
system.cpu_clk_domain.clock                     10000                       # Clock period in ticks
system.cpu0.dtb.fetch_hits                          0                       # ITB hits
system.cpu0.dtb.fetch_misses                        0                       # ITB misses
system.cpu0.dtb.fetch_acv                           0                       # ITB acv
system.cpu0.dtb.fetch_accesses                      0                       # ITB accesses
system.cpu0.dtb.read_hits                    12533883                       # DTB read hits
system.cpu0.dtb.read_misses                     47434                       # DTB read misses
system.cpu0.dtb.read_acv                           38                       # DTB read access violations
system.cpu0.dtb.read_accesses                  320474                       # DTB read accesses
system.cpu0.dtb.write_hits                    5428185                       # DTB write hits
system.cpu0.dtb.write_misses                    10525                       # DTB write misses
system.cpu0.dtb.write_acv                         107                       # DTB write access violations
system.cpu0.dtb.write_accesses                 116768                       # DTB write accesses
system.cpu0.dtb.data_hits                    17962068                       # DTB hits
system.cpu0.dtb.data_misses                     57959                       # DTB misses
system.cpu0.dtb.data_acv                          145                       # DTB access violations
system.cpu0.dtb.data_accesses                  437242                       # DTB accesses
system.cpu0.itb.fetch_hits                    1052002                       # ITB hits
system.cpu0.itb.fetch_misses                     7347                       # ITB misses
system.cpu0.itb.fetch_acv                         150                       # ITB acv
system.cpu0.itb.fetch_accesses                1059349                       # ITB accesses
system.cpu0.itb.read_hits                           0                       # DTB read hits
system.cpu0.itb.read_misses                         0                       # DTB read misses
system.cpu0.itb.read_acv                            0                       # DTB read access violations
system.cpu0.itb.read_accesses                       0                       # DTB read accesses
system.cpu0.itb.write_hits                          0                       # DTB write hits
system.cpu0.itb.write_misses                        0                       # DTB write misses
system.cpu0.itb.write_acv                           0                       # DTB write access violations
system.cpu0.itb.write_accesses                      0                       # DTB write accesses
system.cpu0.itb.data_hits                           0                       # DTB hits
system.cpu0.itb.data_misses                         0                       # DTB misses
system.cpu0.itb.data_acv                            0                       # DTB access violations
system.cpu0.itb.data_accesses                       0                       # DTB accesses
system.cpu0.numCycles                        61800902                       # number of cpu cycles simulated
system.cpu0.numWorkItemsStarted                     0                       # number of work items this cpu started
system.cpu0.numWorkItemsCompleted                   0                       # number of work items this cpu completed
system.cpu0.fetch.icacheStallCycles          17270208                       # Number of cycles fetch is stalled on an Icache miss
system.cpu0.fetch.Insts                      89686068                       # Number of instructions fetch has processed
system.cpu0.fetch.Branches                   20260240                       # Number of branches that fetch encountered
system.cpu0.fetch.predictedBranches           9857252                       # Number of branches that fetch has predicted taken
system.cpu0.fetch.Cycles                     43239236                       # Number of cycles fetch has run and was not squashing or blocked
system.cpu0.fetch.SquashCycles                1103786                       # Number of cycles fetch has spent squashing
system.cpu0.fetch.TlbCycles                        16                       # Number of cycles fetch has spent waiting for tlb
system.cpu0.fetch.MiscStallCycles               60899                       # Number of cycles fetch has spent waiting on interrupts, or bad addresses, or out of MSHRs
system.cpu0.fetch.PendingTrapStallCycles       241611                       # Number of stall cycles due to pending traps
system.cpu0.fetch.PendingQuiesceStallCycles       337079                       # Number of stall cycles due to pending quiesce instructions
system.cpu0.fetch.CacheLines                 10909145                       # Number of cache lines fetched
system.cpu0.fetch.IcacheSquashes               233235                       # Number of outstanding Icache misses that were squashed
system.cpu0.fetch.ItlbSquashes                      1                       # Number of outstanding ITLB misses that were squashed
system.cpu0.fetch.rateDist::samples          61700942                       # Number of instructions fetched each cycle (Total)
system.cpu0.fetch.rateDist::mean             1.453561                       # Number of instructions fetched each cycle (Total)
system.cpu0.fetch.rateDist::stdev            2.616369                       # Number of instructions fetched each cycle (Total)
system.cpu0.fetch.rateDist::underflows              0      0.00%      0.00% # Number of instructions fetched each cycle (Total)
system.cpu0.fetch.rateDist::0                43010324     69.71%     69.71% # Number of instructions fetched each cycle (Total)
system.cpu0.fetch.rateDist::1                 2134552      3.46%     73.17% # Number of instructions fetched each cycle (Total)
system.cpu0.fetch.rateDist::2                 2439252      3.95%     77.12% # Number of instructions fetched each cycle (Total)
system.cpu0.fetch.rateDist::3                 2064250      3.35%     80.47% # Number of instructions fetched each cycle (Total)
system.cpu0.fetch.rateDist::4                 3582541      5.81%     86.27% # Number of instructions fetched each cycle (Total)
system.cpu0.fetch.rateDist::5                  643325      1.04%     87.32% # Number of instructions fetched each cycle (Total)
system.cpu0.fetch.rateDist::6                 1575175      2.55%     89.87% # Number of instructions fetched each cycle (Total)
system.cpu0.fetch.rateDist::7                  529761      0.86%     90.73% # Number of instructions fetched each cycle (Total)
system.cpu0.fetch.rateDist::8                 5721762      9.27%    100.00% # Number of instructions fetched each cycle (Total)
system.cpu0.fetch.rateDist::overflows               0      0.00%    100.00% # Number of instructions fetched each cycle (Total)
system.cpu0.fetch.rateDist::min_value               0                       # Number of instructions fetched each cycle (Total)
system.cpu0.fetch.rateDist::max_value               8                       # Number of instructions fetched each cycle (Total)
system.cpu0.fetch.rateDist::total            61700942                       # Number of instructions fetched each cycle (Total)
system.cpu0.fetch.branchRate                 0.327831                       # Number of branch fetches per cycle
system.cpu0.fetch.rate                       1.451210                       # Number of inst fetches per cycle
system.cpu0.decode.IdleCycles                14564024                       # Number of cycles decode is idle
system.cpu0.decode.BlockedCycles             30826340                       # Number of cycles decode is blocked
system.cpu0.decode.RunCycles                 13983151                       # Number of cycles decode is running
system.cpu0.decode.UnblockCycles              1817666                       # Number of cycles decode is unblocking
system.cpu0.decode.SquashCycles                509760                       # Number of cycles decode is squashing
system.cpu0.decode.BranchResolved              604212                       # Number of times decode resolved a branch
system.cpu0.decode.BranchMispred                44666                       # Number of times decode detected a branch misprediction
system.cpu0.decode.DecodedInsts              81651679                       # Number of instructions handled by decode
system.cpu0.decode.SquashedInsts               132126                       # Number of squashed instructions handled by decode
system.cpu0.rename.SquashCycles                509760                       # Number of cycles rename is squashing
system.cpu0.rename.IdleCycles                15414590                       # Number of cycles rename is idle
system.cpu0.rename.BlockCycles               11803487                       # Number of cycles rename is blocking
system.cpu0.rename.serializeStallCycles      13721689                       # count of cycles rename stalled for serializing inst
system.cpu0.rename.RunCycles                 14950076                       # Number of cycles rename is running
system.cpu0.rename.UnblockCycles              5301338                       # Number of cycles rename is unblocking
system.cpu0.rename.RenamedInsts              79494786                       # Number of instructions processed by rename
system.cpu0.rename.ROBFullEvents                 3464                       # Number of times rename has blocked due to ROB full
system.cpu0.rename.IQFullEvents               4056906                       # Number of times rename has blocked due to IQ full
system.cpu0.rename.LQFullEvents                 34952                       # Number of times rename has blocked due to LQ full
system.cpu0.rename.SQFullEvents                 82749                       # Number of times rename has blocked due to SQ full
system.cpu0.rename.RenamedOperands           57947383                       # Number of destination operands rename has renamed
system.cpu0.rename.RenameLookups            102443012                       # Number of register rename lookups that rename has made
system.cpu0.rename.int_rename_lookups       102350189                       # Number of integer rename lookups
system.cpu0.rename.fp_rename_lookups            84731                       # Number of floating rename lookups
system.cpu0.rename.CommittedMaps             51765368                       # Number of HB maps that are committed
system.cpu0.rename.UndoneMaps                 6182015                       # Number of HB maps that are undone due to squashing
system.cpu0.rename.serializingInsts           1199096                       # count of serializing insts renamed
system.cpu0.rename.tempSerializingInsts        219159                       # count of temporary serializing insts renamed
system.cpu0.rename.skidInsts                 11756581                       # count of insts added to the skid buffer
system.cpu0.memDep0.insertedLoads            13096508                       # Number of loads inserted to the mem dependence unit.
system.cpu0.memDep0.insertedStores            5755722                       # Number of stores inserted to the mem dependence unit.
system.cpu0.memDep0.conflictingLoads          1667452                       # Number of conflicting loads.
system.cpu0.memDep0.conflictingStores         1075663                       # Number of conflicting stores.
system.cpu0.iq.iqInstsAdded                  74742857                       # Number of instructions added to the IQ (excludes non-spec)
system.cpu0.iq.iqNonSpecInstsAdded            1680666                       # Number of non-speculative instructions added to the IQ
system.cpu0.iq.iqInstsIssued                 72959622                       # Number of instructions issued
system.cpu0.iq.iqSquashedInstsIssued            76996                       # Number of squashed instructions issued
system.cpu0.iq.iqSquashedInstsExamined        7540994                       # Number of squashed instructions iterated over during squash; mainly for profiling
system.cpu0.iq.iqSquashedOperandsExamined      3919781                       # Number of squashed operands that are examined and possibly removed from graph
system.cpu0.iq.iqSquashedNonSpecRemoved       1053193                       # Number of squashed non-spec instructions that were removed
system.cpu0.iq.issued_per_cycle::samples     61700942                       # Number of insts issued each cycle
[...]
system.cpu0.kern.ipl_used::total             0.831041                       # fraction of swpipl calls that actually changed the ipl
system.cpu0.kern.syscall::2                         1     50.00%     50.00% # number of syscalls executed
system.cpu0.kern.syscall::3                         1     50.00%    100.00% # number of syscalls executed
system.cpu0.kern.syscall::total                     2                       # number of syscalls executed
system.cpu0.kern.callpal::wripir                    1      0.19%      0.19% # number of callpals executed
system.cpu0.kern.callpal::swpctx                   12      2.22%      2.41% # number of callpals executed
system.cpu0.kern.callpal::tbi                       1      0.19%      2.59% # number of callpals executed
system.cpu0.kern.callpal::swpipl                  475     87.96%     90.56% # number of callpals executed
system.cpu0.kern.callpal::rdps                     14      2.59%     93.15% # number of callpals executed
system.cpu0.kern.callpal::rdusp                     1      0.19%     93.33% # number of callpals executed
system.cpu0.kern.callpal::rti                      26      4.81%     98.15% # number of callpals executed
system.cpu0.kern.callpal::callsys                  10      1.85%    100.00% # number of callpals executed
system.cpu0.kern.callpal::total                   540                       # number of callpals executed
system.cpu0.kern.mode_switch::kernel               39                       # number of protection mode switches
system.cpu0.kern.mode_switch::user                 20                       # number of protection mode switches
system.cpu0.kern.mode_switch::idle                  0                       # number of protection mode switches
system.cpu0.kern.mode_good::kernel                 21                      
system.cpu0.kern.mode_good::user                   20                      
system.cpu0.kern.mode_good::idle                    0                      
system.cpu0.kern.mode_switch_good::kernel     0.538462                       # fraction of useful protection mode switches
system.cpu0.kern.mode_switch_good::user             1                       # fraction of useful protection mode switches
system.cpu0.kern.mode_switch_good::idle           nan                       # fraction of useful protection mode switches
system.cpu0.kern.mode_switch_good::total     0.694915                       # fraction of useful protection mode switches
system.cpu0.kern.mode_ticks::kernel        1235980000     68.47%     68.47% # number of ticks spent at the given mode
system.cpu0.kern.mode_ticks::user           569160000     31.53%    100.00% # number of ticks spent at the given mode
system.cpu0.kern.mode_ticks::idle                   0      0.00%    100.00% # number of ticks spent at the given mode
system.cpu0.kern.swap_context                      12                       # number of times the context was actually changed
system.cpu1.kern.inst.arm                           0                       # number of arm instructions executed
system.cpu1.kern.inst.quiesce                       7                       # number of quiesce instructions executed
system.cpu1.kern.inst.hwrei                       927                       # number of hwrei instructions executed
system.cpu1.kern.ipl_count::0                     127     38.72%     38.72% # number of times we switched to this ipl
system.cpu1.kern.ipl_count::22                      7      2.13%     40.85% # number of times we switched to this ipl
system.cpu1.kern.ipl_count::30                      3      0.91%     41.77% # number of times we switched to this ipl
system.cpu1.kern.ipl_count::31                    191     58.23%    100.00% # number of times we switched to this ipl
system.cpu1.kern.ipl_count::total                 328                       # number of times we switched to this ipl
system.cpu1.kern.ipl_good::0                      127     48.29%     48.29% # number of times we switched to this ipl from a different ipl
system.cpu1.kern.ipl_good::22                       7      2.66%     50.95% # number of times we switched to this ipl from a different ipl
system.cpu1.kern.ipl_good::30                       3      1.14%     52.09% # number of times we switched to this ipl from a different ipl
system.cpu1.kern.ipl_good::31                     126     47.91%    100.00% # number of times we switched to this ipl from a different ipl
system.cpu1.kern.ipl_good::total                  263                       # number of times we switched to this ipl from a different ipl
system.cpu1.kern.ipl_ticks::0              6513120000     95.22%     95.22% # number of cycles we spent at this ipl
system.cpu1.kern.ipl_ticks::22               11240000      0.16%     95.39% # number of cycles we spent at this ipl
system.cpu1.kern.ipl_ticks::30               13630000      0.20%     95.58% # number of cycles we spent at this ipl
system.cpu1.kern.ipl_ticks::31              302000000      4.42%    100.00% # number of cycles we spent at this ipl
system.cpu1.kern.ipl_ticks::total          6839990000                       # number of cycles we spent at this ipl
system.cpu1.kern.ipl_used::0                        1                       # fraction of swpipl calls that actually changed the ipl
system.cpu1.kern.ipl_used::22                       1                       # fraction of swpipl calls that actually changed the ipl
system.cpu1.kern.ipl_used::30                       1                       # fraction of swpipl calls that actually changed the ipl
system.cpu1.kern.ipl_used::31                0.659686                       # fraction of swpipl calls that actually changed the ipl
system.cpu1.kern.ipl_used::total             0.801829                       # fraction of swpipl calls that actually changed the ipl
system.cpu1.kern.syscall::6                         1     33.33%     33.33% # number of syscalls executed
system.cpu1.kern.syscall::48                        1     33.33%     66.67% # number of syscalls executed
system.cpu1.kern.syscall::59                        1     33.33%    100.00% # number of syscalls executed
system.cpu1.kern.syscall::total                     3                       # number of syscalls executed
system.cpu1.kern.callpal::wripir                    1      0.24%      0.24% # number of callpals executed
system.cpu1.kern.callpal::swpctx                   58     14.18%     14.43% # number of callpals executed
system.cpu1.kern.callpal::tbi                       5      1.22%     15.65% # number of callpals executed
system.cpu1.kern.callpal::swpipl                  243     59.41%     75.06% # number of callpals executed
system.cpu1.kern.callpal::rdps                     15      3.67%     78.73% # number of callpals executed
system.cpu1.kern.callpal::rti                      76     18.58%     97.31% # number of callpals executed
system.cpu1.kern.callpal::callsys                   9      2.20%     99.51% # number of callpals executed
system.cpu1.kern.callpal::imb                       2      0.49%    100.00% # number of callpals executed
system.cpu1.kern.callpal::total                   409                       # number of callpals executed
system.cpu1.kern.mode_switch::kernel              125                       # number of protection mode switches
system.cpu1.kern.mode_switch::user                 68                       # number of protection mode switches
system.cpu1.kern.mode_switch::idle                  9                       # number of protection mode switches
system.cpu1.kern.mode_good::kernel                 69                      
system.cpu1.kern.mode_good::user                   68                      
system.cpu1.kern.mode_good::idle                    1                      
system.cpu1.kern.mode_switch_good::kernel     0.552000                       # fraction of useful protection mode switches
system.cpu1.kern.mode_switch_good::user             1                       # fraction of useful protection mode switches
system.cpu1.kern.mode_switch_good::idle      0.111111                       # fraction of useful protection mode switches
system.cpu1.kern.mode_switch_good::total     0.683168                       # fraction of useful protection mode switches
system.cpu1.kern.mode_ticks::kernel        1070460000      6.71%      6.71% # number of ticks spent at the given mode
system.cpu1.kern.mode_ticks::user           655380000      4.11%     10.82% # number of ticks spent at the given mode
system.cpu1.kern.mode_ticks::idle         14226170000     89.18%    100.00% # number of ticks spent at the given mode
system.cpu1.kern.swap_context                      58                       # number of times the context was actually changed
system.cpu2.kern.inst.arm                           0                       # number of arm instructions executed
system.cpu2.kern.inst.quiesce                       3                       # number of quiesce instructions executed
system.cpu2.kern.inst.hwrei                      1330                       # number of hwrei instructions executed
system.cpu2.kern.ipl_count::0                     272     44.96%     44.96% # number of times we switched to this ipl
system.cpu2.kern.ipl_count::22                      7      1.16%     46.12% # number of times we switched to this ipl
system.cpu2.kern.ipl_count::30                      1      0.17%     46.28% # number of times we switched to this ipl
system.cpu2.kern.ipl_count::31                    325     53.72%    100.00% # number of times we switched to this ipl
system.cpu2.kern.ipl_count::total                 605                       # number of times we switched to this ipl
system.cpu2.kern.ipl_good::0                      270     49.36%     49.36% # number of times we switched to this ipl from a different ipl
system.cpu2.kern.ipl_good::22                       7      1.28%     50.64% # number of times we switched to this ipl from a different ipl
system.cpu2.kern.ipl_good::30                       1      0.18%     50.82% # number of times we switched to this ipl from a different ipl
system.cpu2.kern.ipl_good::31                     269     49.18%    100.00% # number of times we switched to this ipl from a different ipl
system.cpu2.kern.ipl_good::total                  547                       # number of times we switched to this ipl from a different ipl
system.cpu2.kern.ipl_ticks::0              7234480000     93.68%     93.68% # number of cycles we spent at this ipl
system.cpu2.kern.ipl_ticks::22               13080000      0.17%     93.85% # number of cycles we spent at this ipl
system.cpu2.kern.ipl_ticks::30                3440000      0.04%     93.89% # number of cycles we spent at this ipl
system.cpu2.kern.ipl_ticks::31              471570000      6.11%    100.00% # number of cycles we spent at this ipl
system.cpu2.kern.ipl_ticks::total          7722570000                       # number of cycles we spent at this ipl
system.cpu2.kern.ipl_used::0                 0.992647                       # fraction of swpipl calls that actually changed the ipl
system.cpu2.kern.ipl_used::22                       1                       # fraction of swpipl calls that actually changed the ipl
system.cpu2.kern.ipl_used::30                       1                       # fraction of swpipl calls that actually changed the ipl
system.cpu2.kern.ipl_used::31                0.827692                       # fraction of swpipl calls that actually changed the ipl
system.cpu2.kern.ipl_used::total             0.904132                       # fraction of swpipl calls that actually changed the ipl
system.cpu2.kern.syscall::3                         1      8.33%      8.33% # number of syscalls executed
system.cpu2.kern.syscall::6                         1      8.33%     16.67% # number of syscalls executed
system.cpu2.kern.syscall::17                        1      8.33%     25.00% # number of syscalls executed
system.cpu2.kern.syscall::33                        1      8.33%     33.33% # number of syscalls executed
system.cpu2.kern.syscall::45                        3     25.00%     58.33% # number of syscalls executed
system.cpu2.kern.syscall::71                        4     33.33%     91.67% # number of syscalls executed
system.cpu2.kern.syscall::74                        1      8.33%    100.00% # number of syscalls executed
system.cpu2.kern.syscall::total                    12                       # number of syscalls executed
system.cpu2.kern.callpal::wripir                    3      0.44%      0.44% # number of callpals executed
system.cpu2.kern.callpal::swpctx                   53      7.70%      8.14% # number of callpals executed
system.cpu2.kern.callpal::tbi                       1      0.15%      8.28% # number of callpals executed
system.cpu2.kern.callpal::swpipl                  490     71.22%     79.51% # number of callpals executed
system.cpu2.kern.callpal::rdps                     15      2.18%     81.69% # number of callpals executed
system.cpu2.kern.callpal::wrusp                     1      0.15%     81.83% # number of callpals executed
system.cpu2.kern.callpal::rti                     107     15.55%     97.38% # number of callpals executed
system.cpu2.kern.callpal::callsys                  15      2.18%     99.56% # number of callpals executed
system.cpu2.kern.callpal::imb                       3      0.44%    100.00% # number of callpals executed
system.cpu2.kern.callpal::total                   688                       # number of callpals executed
system.cpu2.kern.mode_switch::kernel              159                       # number of protection mode switches
system.cpu2.kern.mode_switch::user                 99                       # number of protection mode switches
system.cpu2.kern.mode_switch::idle                  0                       # number of protection mode switches
system.cpu2.kern.mode_good::kernel                 98                      
system.cpu2.kern.mode_good::user                   99                      
system.cpu2.kern.mode_good::idle                    0                      
system.cpu2.kern.mode_switch_good::kernel     0.616352                       # fraction of useful protection mode switches
system.cpu2.kern.mode_switch_good::user             1                       # fraction of useful protection mode switches
system.cpu2.kern.mode_switch_good::idle           nan                       # fraction of useful protection mode switches
system.cpu2.kern.mode_switch_good::total     0.763566                       # fraction of useful protection mode switches
system.cpu2.kern.mode_ticks::kernel       11656620000     87.05%     87.05% # number of ticks spent at the given mode
system.cpu2.kern.mode_ticks::user          1733810000     12.95%    100.00% # number of ticks spent at the given mode
system.cpu2.kern.mode_ticks::idle                   0      0.00%    100.00% # number of ticks spent at the given mode
system.cpu2.kern.swap_context                      53                       # number of times the context was actually changed
system.cpu3.kern.inst.arm                           0                       # number of arm instructions executed
system.cpu3.kern.inst.quiesce                       8                       # number of quiesce instructions executed
system.cpu3.kern.inst.hwrei                       133                       # number of hwrei instructions executed
system.cpu3.kern.ipl_count::0                      29     24.37%     24.37% # number of times we switched to this ipl
system.cpu3.kern.ipl_count::22                      7      5.88%     30.25% # number of times we switched to this ipl
system.cpu3.kern.ipl_count::30                      1      0.84%     31.09% # number of times we switched to this ipl
system.cpu3.kern.ipl_count::31                     82     68.91%    100.00% # number of times we switched to this ipl
system.cpu3.kern.ipl_count::total                 119                       # number of times we switched to this ipl
system.cpu3.kern.ipl_good::0                       29     44.62%     44.62% # number of times we switched to this ipl from a different ipl
system.cpu3.kern.ipl_good::22                       7     10.77%     55.38% # number of times we switched to this ipl from a different ipl
system.cpu3.kern.ipl_good::30                       1      1.54%     56.92% # number of times we switched to this ipl from a different ipl
system.cpu3.kern.ipl_good::31                      28     43.08%    100.00% # number of times we switched to this ipl from a different ipl
system.cpu3.kern.ipl_good::total                   65                       # number of times we switched to this ipl from a different ipl
system.cpu3.kern.ipl_ticks::0              6717610000     98.33%     98.33% # number of cycles we spent at this ipl
system.cpu3.kern.ipl_ticks::22               10700000      0.16%     98.49% # number of cycles we spent at this ipl
system.cpu3.kern.ipl_ticks::30                4950000      0.07%     98.56% # number of cycles we spent at this ipl
system.cpu3.kern.ipl_ticks::31               98290000      1.44%    100.00% # number of cycles we spent at this ipl
system.cpu3.kern.ipl_ticks::total          6831550000                       # number of cycles we spent at this ipl
system.cpu3.kern.ipl_used::0                        1                       # fraction of swpipl calls that actually changed the ipl
system.cpu3.kern.ipl_used::22                       1                       # fraction of swpipl calls that actually changed the ipl
system.cpu3.kern.ipl_used::30                       1                       # fraction of swpipl calls that actually changed the ipl
system.cpu3.kern.ipl_used::31                0.341463                       # fraction of swpipl calls that actually changed the ipl
system.cpu3.kern.ipl_used::total             0.546218                       # fraction of swpipl calls that actually changed the ipl
system.cpu3.kern.callpal::swpipl                  103     82.40%     82.40% # number of callpals executed
system.cpu3.kern.callpal::rdps                     14     11.20%     93.60% # number of callpals executed
system.cpu3.kern.callpal::rti                       8      6.40%    100.00% # number of callpals executed
system.cpu3.kern.callpal::total                   125                       # number of callpals executed
system.cpu3.kern.mode_switch::kernel                8                       # number of protection mode switches
system.cpu3.kern.mode_switch::user                  0                       # number of protection mode switches
system.cpu3.kern.mode_switch::idle                  0                       # number of protection mode switches
system.cpu3.kern.mode_good::kernel                  0                      
system.cpu3.kern.mode_good::user                    0                      
system.cpu3.kern.mode_good::idle                    0                      
system.cpu3.kern.mode_switch_good::kernel            0                       # fraction of useful protection mode switches
system.cpu3.kern.mode_switch_good::user           nan                       # fraction of useful protection mode switches
system.cpu3.kern.mode_switch_good::idle           nan                       # fraction of useful protection mode switches
system.cpu3.kern.mode_switch_good::total            0                       # fraction of useful protection mode switches
system.cpu3.kern.mode_ticks::kernel                 0                       # number of ticks spent at the given mode
system.cpu3.kern.mode_ticks::user                   0                       # number of ticks spent at the given mode
system.cpu3.kern.mode_ticks::idle                   0                       # number of ticks spent at the given mode
system.cpu3.kern.swap_context                       0                       # number of times the context was actually changed

---------- End Simulation Statistics   ----------
