
---------- Begin Simulation Statistics ----------
sim_seconds                                  4.756877                       # Number of seconds simulated
sim_ticks                                4756877108500                       # Number of ticks simulated
final_tick                               4756877108500                       # Number of ticks from beginning of simulation (restored from checkpoints and never reset)
sim_freq                                 1000000000000                       # Frequency of simulated ticks
host_inst_rate                                1471702                       # Simulator instruction rate (inst/s)
host_op_rate                                  3720566                       # Simulator op (including micro ops) rate (op/s)
host_tick_rate                            29411227916                       # Simulator tick rate (ticks/s)
host_mem_usage                                 759344                       # Number of bytes of host memory used
host_seconds                                   161.74                       # Real time elapsed on the host
sim_insts                                   238028286                       # Number of instructions simulated
sim_ops                                     601752327                       # Number of ops (including micro ops) simulated
system.voltage_domain.voltage                       1                       # Voltage in Volts
system.clk_domain.clock                          1000                       # Clock period in ticks
system.mem_ctrls.bytes_read::pc.south_bridge.ide        41728                       # Number of bytes read from this memory
system.mem_ctrls.bytes_read::cpu0.dtb.walker        39488                       # Number of bytes read from this memory
system.mem_ctrls.bytes_read::cpu0.itb.walker        46184                       # Number of bytes read from this memory
system.mem_ctrls.bytes_read::cpu0.inst     2340275512                       # Number of bytes read from this memory
system.mem_ctrls.bytes_read::cpu0.data      270012280                       # Number of bytes read from this memory
system.mem_ctrls.bytes_read::cpu1.dtb.walker         6136                       # Number of bytes read from this memory
system.mem_ctrls.bytes_read::cpu1.itb.walker         8720                       # Number of bytes read from this memory
system.mem_ctrls.bytes_read::cpu1.inst      176719688                       # Number of bytes read from this memory
system.mem_ctrls.bytes_read::cpu1.data       35406148                       # Number of bytes read from this memory
system.mem_ctrls.bytes_read::total         2822555884                       # Number of bytes read from this memory
system.mem_ctrls.bytes_inst_read::cpu0.inst   2340275512                       # Number of instructions bytes read from this memory
system.mem_ctrls.bytes_inst_read::cpu1.inst    176719688                       # Number of instructions bytes read from this memory
system.mem_ctrls.bytes_inst_read::total    2516995200                       # Number of instructions bytes read from this memory
system.mem_ctrls.bytes_written::pc.south_bridge.ide      2661376                       # Number of bytes written to this memory
system.mem_ctrls.bytes_written::cpu0.itb.walker           16                       # Number of bytes written to this memory
system.mem_ctrls.bytes_written::cpu0.data     58022464                       # Number of bytes written to this memory
system.mem_ctrls.bytes_written::cpu1.data     25687738                       # Number of bytes written to this memory
system.mem_ctrls.bytes_written::total        86371594                       # Number of bytes written to this memory
system.mem_ctrls.num_reads::pc.south_bridge.ide         1184                       # Number of read requests responded to by this memory
system.mem_ctrls.num_reads::cpu0.dtb.walker         4936                       # Number of read requests responded to by this memory
system.mem_ctrls.num_reads::cpu0.itb.walker         5773                       # Number of read requests responded to by this memory
system.mem_ctrls.num_reads::cpu0.inst       292534439                       # Number of read requests responded to by this memory
system.mem_ctrls.num_reads::cpu0.data        63044792                       # Number of read requests responded to by this memory
system.mem_ctrls.num_reads::cpu1.dtb.walker          767                       # Number of read requests responded to by this memory
system.mem_ctrls.num_reads::cpu1.itb.walker         1090                       # Number of read requests responded to by this memory
system.mem_ctrls.num_reads::cpu1.inst        22089961                       # Number of read requests responded to by this memory
system.mem_ctrls.num_reads::cpu1.data         5123441                       # Number of read requests responded to by this memory
system.mem_ctrls.num_reads::total           382806383                       # Number of read requests responded to by this memory
system.mem_ctrls.num_writes::pc.south_bridge.ide        41584                       # Number of write requests responded to by this memory
system.mem_ctrls.num_writes::cpu0.itb.walker            2                       # Number of write requests responded to by this memory
system.mem_ctrls.num_writes::cpu0.data       14951040                       # Number of write requests responded to by this memory
system.mem_ctrls.num_writes::cpu1.data        3552664                       # Number of write requests responded to by this memory
system.mem_ctrls.num_writes::total           18545290                       # Number of write requests responded to by this memory
system.mem_ctrls.bw_read::pc.south_bridge.ide         8772                       # Total read bandwidth from this memory (bytes/s)
system.mem_ctrls.bw_read::cpu0.dtb.walker         8301                       # Total read bandwidth from this memory (bytes/s)
system.mem_ctrls.bw_read::cpu0.itb.walker         9709                       # Total read bandwidth from this memory (bytes/s)
system.mem_ctrls.bw_read::cpu0.inst         491977291                       # Total read bandwidth from this memory (bytes/s)
system.mem_ctrls.bw_read::cpu0.data          56762509                       # Total read bandwidth from this memory (bytes/s)
system.mem_ctrls.bw_read::cpu1.dtb.walker         1290                       # Total read bandwidth from this memory (bytes/s)
system.mem_ctrls.bw_read::cpu1.itb.walker         1833                       # Total read bandwidth from this memory (bytes/s)
system.mem_ctrls.bw_read::cpu1.inst          37150358                       # Total read bandwidth from this memory (bytes/s)
system.mem_ctrls.bw_read::cpu1.data           7443150                       # Total read bandwidth from this memory (bytes/s)
system.mem_ctrls.bw_read::total             593363213                       # Total read bandwidth from this memory (bytes/s)
system.mem_ctrls.bw_inst_read::cpu0.inst    491977291                       # Instruction read bandwidth from this memory (bytes/s)
system.mem_ctrls.bw_inst_read::cpu1.inst     37150358                       # Instruction read bandwidth from this memory (bytes/s)
system.mem_ctrls.bw_inst_read::total        529127649                       # Instruction read bandwidth from this memory (bytes/s)
system.mem_ctrls.bw_write::pc.south_bridge.ide       559480                       # Write bandwidth from this memory (bytes/s)
system.mem_ctrls.bw_write::cpu0.itb.walker            3                       # Write bandwidth from this memory (bytes/s)
system.mem_ctrls.bw_write::cpu0.data         12197596                       # Write bandwidth from this memory (bytes/s)
system.mem_ctrls.bw_write::cpu1.data          5400126                       # Write bandwidth from this memory (bytes/s)
system.mem_ctrls.bw_write::total             18157205                       # Write bandwidth from this memory (bytes/s)
system.mem_ctrls.bw_total::pc.south_bridge.ide       568252                       # Total bandwidth to/from this memory (bytes/s)
system.mem_ctrls.bw_total::cpu0.dtb.walker         8301                       # Total bandwidth to/from this memory (bytes/s)
system.mem_ctrls.bw_total::cpu0.itb.walker         9712                       # Total bandwidth to/from this memory (bytes/s)
system.mem_ctrls.bw_total::cpu0.inst        491977291                       # Total bandwidth to/from this memory (bytes/s)
system.mem_ctrls.bw_total::cpu0.data         68960105                       # Total bandwidth to/from this memory (bytes/s)
system.mem_ctrls.bw_total::cpu1.dtb.walker         1290                       # Total bandwidth to/from this memory (bytes/s)
system.mem_ctrls.bw_total::cpu1.itb.walker         1833                       # Total bandwidth to/from this memory (bytes/s)
system.mem_ctrls.bw_total::cpu1.inst         37150358                       # Total bandwidth to/from this memory (bytes/s)
system.mem_ctrls.bw_total::cpu1.data         12843276                       # Total bandwidth to/from this memory (bytes/s)
system.mem_ctrls.bw_total::total            611520418                       # Total bandwidth to/from this memory (bytes/s)
system.mem_ctrls.readReqs                           0                       # Number of read requests accepted
system.mem_ctrls.writeReqs                          0                       # Number of write requests accepted
system.mem_ctrls.readBursts                         0                       # Number of DRAM read bursts, including those serviced by the write queue
system.mem_ctrls.writeBursts                        0                       # Number of DRAM write bursts, including those merged in the write queue
system.mem_ctrls.bytesReadDRAM                      0                       # Total number of bytes read from DRAM
system.mem_ctrls.bytesReadWrQ                       0                       # Total number of bytes read from write queue
system.mem_ctrls.bytesWritten                       0                       # Total number of bytes written to DRAM
system.mem_ctrls.bytesReadSys                       0                       # Total read bytes from the system interface side
system.mem_ctrls.bytesWrittenSys                    0                       # Total written bytes from the system interface side
system.mem_ctrls.servicedByWrQ                      0                       # Number of DRAM read bursts serviced by the write queue
system.mem_ctrls.mergedWrBursts                     0                       # Number of DRAM write bursts merged with an existing one
system.mem_ctrls.neitherReadNorWriteReqs            0                       # Number of requests that are neither read nor write
system.mem_ctrls.perBankRdBursts::0                 0                       # Per bank write bursts
system.mem_ctrls.perBankRdBursts::1                 0                       # Per bank write bursts
system.mem_ctrls.perBankRdBursts::2                 0                       # Per bank write bursts
system.mem_ctrls.perBankRdBursts::3                 0                       # Per bank write bursts
system.mem_ctrls.perBankRdBursts::4                 0                       # Per bank write bursts
system.mem_ctrls.perBankRdBursts::5                 0                       # Per bank write bursts
system.mem_ctrls.perBankRdBursts::6                 0                       # Per bank write bursts
system.mem_ctrls.perBankRdBursts::7                 0                       # Per bank write bursts
system.mem_ctrls.perBankRdBursts::8                 0                       # Per bank write bursts
system.mem_ctrls.perBankRdBursts::9                 0                       # Per bank write bursts
system.mem_ctrls.perBankRdBursts::10                0                       # Per bank write bursts
system.mem_ctrls.perBankRdBursts::11                0                       # Per bank write bursts
system.mem_ctrls.perBankRdBursts::12                0                       # Per bank write bursts
system.mem_ctrls.perBankRdBursts::13                0                       # Per bank write bursts
system.mem_ctrls.perBankRdBursts::14                0                       # Per bank write bursts
system.mem_ctrls.perBankRdBursts::15                0                       # Per bank write bursts
system.mem_ctrls.perBankWrBursts::0                 0                       # Per bank write bursts
system.mem_ctrls.perBankWrBursts::1                 0                       # Per bank write bursts
system.mem_ctrls.perBankWrBursts::2                 0                       # Per bank write bursts
system.mem_ctrls.perBankWrBursts::3                 0                       # Per bank write bursts
system.mem_ctrls.perBankWrBursts::4                 0                       # Per bank write bursts
system.mem_ctrls.perBankWrBursts::5                 0                       # Per bank write bursts
system.mem_ctrls.perBankWrBursts::6                 0                       # Per bank write bursts
system.mem_ctrls.perBankWrBursts::7                 0                       # Per bank write bursts
system.mem_ctrls.perBankWrBursts::8                 0                       # Per bank write bursts
system.mem_ctrls.perBankWrBursts::9                 0                       # Per bank write bursts
system.mem_ctrls.perBankWrBursts::10                0                       # Per bank write bursts
system.mem_ctrls.perBankWrBursts::11                0                       # Per bank write bursts
system.mem_ctrls.perBankWrBursts::12                0                       # Per bank write bursts
system.mem_ctrls.perBankWrBursts::13                0                       # Per bank write bursts
system.mem_ctrls.perBankWrBursts::14                0                       # Per bank write bursts
system.mem_ctrls.perBankWrBursts::15                0                       # Per bank write bursts
system.mem_ctrls.numRdRetry                         0                       # Number of times read queue was full causing retry
system.mem_ctrls.numWrRetry                         0                       # Number of times write queue was full causing retry
system.mem_ctrls.totGap                             0                       # Total gap between requests
system.mem_ctrls.readPktSize::0                     0                       # Read request sizes (log2)
system.mem_ctrls.readPktSize::1                     0                       # Read request sizes (log2)
system.mem_ctrls.readPktSize::2                     0                       # Read request sizes (log2)
system.mem_ctrls.readPktSize::3                     0                       # Read request sizes (log2)
system.mem_ctrls.readPktSize::4                     0                       # Read request sizes (log2)
system.mem_ctrls.readPktSize::5                     0                       # Read request sizes (log2)
system.mem_ctrls.readPktSize::6                     0                       # Read request sizes (log2)
system.mem_ctrls.writePktSize::0                    0                       # Write request sizes (log2)
system.mem_ctrls.writePktSize::1                    0                       # Write request sizes (log2)
system.mem_ctrls.writePktSize::2                    0                       # Write request sizes (log2)
system.mem_ctrls.writePktSize::3                    0                       # Write request sizes (log2)
system.mem_ctrls.writePktSize::4                    0                       # Write request sizes (log2)
system.mem_ctrls.writePktSize::5                    0                       # Write request sizes (log2)
system.mem_ctrls.writePktSize::6                    0                       # Write request sizes (log2)
system.mem_ctrls.rdQLenPdf::0                       0                       # What read queue length does an incoming req see
system.mem_ctrls.rdQLenPdf::1                       0                       # What read queue length does an incoming req see
system.mem_ctrls.rdQLenPdf::2                       0                       # What read queue length does an incoming req see
system.mem_ctrls.rdQLenPdf::3                       0                       # What read queue length does an incoming req see
system.mem_ctrls.rdQLenPdf::4                       0                       # What read queue length does an incoming req see
system.mem_ctrls.rdQLenPdf::5                       0                       # What read queue length does an incoming req see
system.mem_ctrls.rdQLenPdf::6                       0                       # What read queue length does an incoming req see
system.mem_ctrls.rdQLenPdf::7                       0                       # What read queue length does an incoming req see
system.mem_ctrls.rdQLenPdf::8                       0                       # What read queue length does an incoming req see
system.mem_ctrls.rdQLenPdf::9                       0                       # What read queue length does an incoming req see
system.mem_ctrls.rdQLenPdf::10                      0                       # What read queue length does an incoming req see
system.mem_ctrls.rdQLenPdf::11                      0                       # What read queue length does an incoming req see
system.mem_ctrls.rdQLenPdf::12                      0                       # What read queue length does an incoming req see
system.mem_ctrls.rdQLenPdf::13                      0                       # What read queue length does an incoming req see
system.mem_ctrls.rdQLenPdf::14                      0                       # What read queue length does an incoming req see
system.mem_ctrls.rdQLenPdf::15                      0                       # What read queue length does an incoming req see
system.mem_ctrls.rdQLenPdf::16                      0                       # What read queue length does an incoming req see
system.mem_ctrls.rdQLenPdf::17                      0                       # What read queue length does an incoming req see
system.mem_ctrls.rdQLenPdf::18                      0                       # What read queue length does an incoming req see
system.mem_ctrls.rdQLenPdf::19                      0                       # What read queue length does an incoming req see
system.mem_ctrls.rdQLenPdf::20                      0                       # What read queue length does an incoming req see
system.mem_ctrls.rdQLenPdf::21                      0                       # What read queue length does an incoming req see
system.mem_ctrls.rdQLenPdf::22                      0                       # What read queue length does an incoming req see
system.mem_ctrls.rdQLenPdf::23                      0                       # What read queue length does an incoming req see
system.mem_ctrls.rdQLenPdf::24                      0                       # What read queue length does an incoming req see
system.mem_ctrls.rdQLenPdf::25                      0                       # What read queue length does an incoming req see
system.mem_ctrls.rdQLenPdf::26                      0                       # What read queue length does an incoming req see
system.mem_ctrls.rdQLenPdf::27                      0                       # What read queue length does an incoming req see
system.mem_ctrls.rdQLenPdf::28                      0                       # What read queue length does an incoming req see
system.mem_ctrls.rdQLenPdf::29                      0                       # What read queue length does an incoming req see
system.mem_ctrls.rdQLenPdf::30                      0                       # What read queue length does an incoming req see
system.mem_ctrls.rdQLenPdf::31                      0                       # What read queue length does an incoming req see
system.mem_ctrls.wrQLenPdf::0                       0                       # What write queue length does an incoming req see
system.mem_ctrls.wrQLenPdf::1                       0                       # What write queue length does an incoming req see
system.mem_ctrls.wrQLenPdf::2                       0                       # What write queue length does an incoming req see
system.mem_ctrls.wrQLenPdf::3                       0                       # What write queue length does an incoming req see
system.mem_ctrls.wrQLenPdf::4                       0                       # What write queue length does an incoming req see
system.mem_ctrls.wrQLenPdf::5                       0                       # What write queue length does an incoming req see
system.mem_ctrls.wrQLenPdf::6                       0                       # What write queue length does an incoming req see
system.mem_ctrls.wrQLenPdf::7                       0                       # What write queue length does an incoming req see
system.mem_ctrls.wrQLenPdf::8                       0                       # What write queue length does an incoming req see
system.mem_ctrls.wrQLenPdf::9                       0                       # What write queue length does an incoming req see
system.mem_ctrls.wrQLenPdf::10                      0                       # What write queue length does an incoming req see
system.mem_ctrls.wrQLenPdf::11                      0                       # What write queue length does an incoming req see
system.mem_ctrls.wrQLenPdf::12                      0                       # What write queue length does an incoming req see
system.mem_ctrls.wrQLenPdf::13                      0                       # What write queue length does an incoming req see
system.mem_ctrls.wrQLenPdf::14                      0                       # What write queue length does an incoming req see
system.mem_ctrls.wrQLenPdf::15                      0                       # What write queue length does an incoming req see
system.mem_ctrls.wrQLenPdf::16                      0                       # What write queue length does an incoming req see
system.mem_ctrls.wrQLenPdf::17                      0                       # What write queue length does an incoming req see
system.mem_ctrls.wrQLenPdf::18                      0                       # What write queue length does an incoming req see
system.mem_ctrls.wrQLenPdf::19                      0                       # What write queue length does an incoming req see
system.mem_ctrls.wrQLenPdf::20                      0                       # What write queue length does an incoming req see
system.mem_ctrls.wrQLenPdf::21                      0                       # What write queue length does an incoming req see
system.mem_ctrls.wrQLenPdf::22                      0                       # What write queue length does an incoming req see
system.mem_ctrls.wrQLenPdf::23                      0                       # What write queue length does an incoming req see
system.mem_ctrls.wrQLenPdf::24                      0                       # What write queue length does an incoming req see
system.mem_ctrls.wrQLenPdf::25                      0                       # What write queue length does an incoming req see
system.mem_ctrls.wrQLenPdf::26                      0                       # What write queue length does an incoming req see
system.mem_ctrls.wrQLenPdf::27                      0                       # What write queue length does an incoming req see
system.mem_ctrls.wrQLenPdf::28                      0                       # What write queue length does an incoming req see
system.mem_ctrls.wrQLenPdf::29                      0                       # What write queue length does an incoming req see
system.mem_ctrls.wrQLenPdf::30                      0                       # What write queue length does an incoming req see
system.mem_ctrls.wrQLenPdf::31                      0                       # What write queue length does an incoming req see
system.mem_ctrls.wrQLenPdf::32                      0                       # What write queue length does an incoming req see
system.mem_ctrls.wrQLenPdf::33                      0                       # What write queue length does an incoming req see
system.mem_ctrls.wrQLenPdf::34                      0                       # What write queue length does an incoming req see
system.mem_ctrls.wrQLenPdf::35                      0                       # What write queue length does an incoming req see
system.mem_ctrls.wrQLenPdf::36                      0                       # What write queue length does an incoming req see
system.mem_ctrls.wrQLenPdf::37                      0                       # What write queue length does an incoming req see
system.mem_ctrls.wrQLenPdf::38                      0                       # What write queue length does an incoming req see
system.mem_ctrls.wrQLenPdf::39                      0                       # What write queue length does an incoming req see
system.mem_ctrls.wrQLenPdf::40                      0                       # What write queue length does an incoming req see
system.mem_ctrls.wrQLenPdf::41                      0                       # What write queue length does an incoming req see
system.mem_ctrls.wrQLenPdf::42                      0                       # What write queue length does an incoming req see
system.mem_ctrls.wrQLenPdf::43                      0                       # What write queue length does an incoming req see
system.mem_ctrls.wrQLenPdf::44                      0                       # What write queue length does an incoming req see
system.mem_ctrls.wrQLenPdf::45                      0                       # What write queue length does an incoming req see
system.mem_ctrls.wrQLenPdf::46                      0                       # What write queue length does an incoming req see
system.mem_ctrls.wrQLenPdf::47                      0                       # What write queue length does an incoming req see
system.mem_ctrls.wrQLenPdf::48                      0                       # What write queue length does an incoming req see
system.mem_ctrls.wrQLenPdf::49                      0                       # What write queue length does an incoming req see
system.mem_ctrls.wrQLenPdf::50                      0                       # What write queue length does an incoming req see
system.mem_ctrls.wrQLenPdf::51                      0                       # What write queue length does an incoming req see
system.mem_ctrls.wrQLenPdf::52                      0                       # What write queue length does an incoming req see
system.mem_ctrls.wrQLenPdf::53                      0                       # What write queue length does an incoming req see
system.mem_ctrls.wrQLenPdf::54                      0                       # What write queue length does an incoming req see
system.mem_ctrls.wrQLenPdf::55                      0                       # What write queue length does an incoming req see
system.mem_ctrls.wrQLenPdf::56                      0                       # What write queue length does an incoming req see
system.mem_ctrls.wrQLenPdf::57                      0                       # What write queue length does an incoming req see
system.mem_ctrls.wrQLenPdf::58                      0                       # What write queue length does an incoming req see
system.mem_ctrls.wrQLenPdf::59                      0                       # What write queue length does an incoming req see
system.mem_ctrls.wrQLenPdf::60                      0                       # What write queue length does an incoming req see
system.mem_ctrls.wrQLenPdf::61                      0                       # What write queue length does an incoming req see
system.mem_ctrls.wrQLenPdf::62                      0                       # What write queue length does an incoming req see
system.mem_ctrls.wrQLenPdf::63                      0                       # What write queue length does an incoming req see
system.mem_ctrls.totQLat                            0                       # Total ticks spent queuing
system.mem_ctrls.totMemAccLat                       0                       # Total ticks spent from burst creation until serviced by the DRAM
system.mem_ctrls.totBusLat                          0                       # Total ticks spent in databus transfers
system.mem_ctrls.avgQLat                          nan                       # Average queueing delay per DRAM burst
system.mem_ctrls.avgBusLat                        nan                       # Average bus latency per DRAM burst
system.mem_ctrls.avgMemAccLat                     nan                       # Average memory access latency per DRAM burst
system.mem_ctrls.avgRdBW                         0.00                       # Average DRAM read bandwidth in MiByte/s
system.mem_ctrls.avgWrBW                         0.00                       # Average achieved write bandwidth in MiByte/s
system.mem_ctrls.avgRdBWSys                      0.00                       # Average system read bandwidth in MiByte/s
system.mem_ctrls.avgWrBWSys                      0.00                       # Average system write bandwidth in MiByte/s
system.mem_ctrls.peakBW                      12800.00                       # Theoretical peak bandwidth in MiByte/s
system.mem_ctrls.busUtil                         0.00                       # Data bus utilization in percentage
system.mem_ctrls.busUtilRead                     0.00                       # Data bus utilization in percentage for reads
system.mem_ctrls.busUtilWrite                    0.00                       # Data bus utilization in percentage for writes
system.mem_ctrls.avgRdQLen                       0.00                       # Average read queue length when enqueuing
system.mem_ctrls.avgWrQLen                       0.00                       # Average write queue length when enqueuing
system.mem_ctrls.readRowHits                        0                       # Number of row buffer hits during reads
system.mem_ctrls.writeRowHits                       0                       # Number of row buffer hits during writes
system.mem_ctrls.readRowHitRate                   nan                       # Row buffer hit rate for reads
system.mem_ctrls.writeRowHitRate                  nan                       # Row buffer hit rate for writes
system.mem_ctrls.avgGap                           nan                       # Average gap between requests
system.mem_ctrls.pageHitRate                      nan                       # Row buffer hit rate, read and write combined
system.mem_ctrls.memoryStateTime::IDLE   4598034751250                       # Time in different power states
system.mem_ctrls.memoryStateTime::REF    158842320000                       # Time in different power states
system.mem_ctrls.memoryStateTime::PRE_PDN            0                       # Time in different power states
system.mem_ctrls.memoryStateTime::ACT               0                       # Time in different power states
system.mem_ctrls.memoryStateTime::ACT_PDN            0                       # Time in different power states
system.mem_ctrls.actEnergy::0                       0                       # Energy for activate commands per rank (pJ)
system.mem_ctrls.actEnergy::1                       0                       # Energy for activate commands per rank (pJ)
system.mem_ctrls.preEnergy::0                       0                       # Energy for precharge commands per rank (pJ)
system.mem_ctrls.preEnergy::1                       0                       # Energy for precharge commands per rank (pJ)
system.mem_ctrls.readEnergy::0                      0                       # Energy for read commands per rank (pJ)
system.mem_ctrls.readEnergy::1                      0                       # Energy for read commands per rank (pJ)
system.mem_ctrls.writeEnergy::0                     0                       # Energy for write commands per rank (pJ)
system.mem_ctrls.writeEnergy::1                     0                       # Energy for write commands per rank (pJ)
system.mem_ctrls.refreshEnergy::0        310696086480                       # Energy for refresh commands per rank (pJ)
system.mem_ctrls.refreshEnergy::1        310696086480                       # Energy for refresh commands per rank (pJ)
system.mem_ctrls.actBackEnergy::0        102902499855                       # Energy for active background per rank (pJ)
system.mem_ctrls.actBackEnergy::1        102902499855                       # Energy for active background per rank (pJ)
system.mem_ctrls.preBackEnergy::0        2763861039750                       # Energy for precharge background per rank (pJ)
system.mem_ctrls.preBackEnergy::1        2763861039750                       # Energy for precharge background per rank (pJ)
system.mem_ctrls.totalEnergy::0          3177459626085                       # Total energy per rank (pJ)
system.mem_ctrls.totalEnergy::1          3177459626085                       # Total energy per rank (pJ)
system.mem_ctrls.averagePower::0           667.971742                       # Core power per rank (mW)
system.mem_ctrls.averagePower::1           667.971742                       # Core power per rank (mW)
system.membus.trans_dist::ReadReq           385590766                       # Transaction distribution
system.membus.trans_dist::ReadResp          385590766                       # Transaction distribution
system.membus.trans_dist::WriteReq           18566852                       # Transaction distribution
system.membus.trans_dist::WriteResp          18566852                       # Transaction distribution
system.membus.trans_dist::SoftPFReq            136825                       # Transaction distribution
system.membus.trans_dist::SoftPFResp           136825                       # Transaction distribution
system.membus.trans_dist::MessageReq             2939                       # Transaction distribution
system.membus.trans_dist::MessageResp            2939                       # Transaction distribution
system.membus.pkt_count_system.apicbridge.master::system.cpu0.interrupts.int_slave          518                       # Packet count per connected master and slave (bytes)
system.membus.pkt_count_system.apicbridge.master::system.cpu1.interrupts.int_slave          390                       # Packet count per connected master and slave (bytes)
system.membus.pkt_count_system.apicbridge.master::total          908                       # Packet count per connected master and slave (bytes)
system.membus.pkt_count_system.iobridge.master::system.mem_ctrls.port        85536                       # Packet count per connected master and slave (bytes)
system.membus.pkt_count_system.iobridge.master::total        85536                       # Packet count per connected master and slave (bytes)
system.membus.pkt_count_system.cpu0.icache_port::system.mem_ctrls.port    585068878                       # Packet count per connected master and slave (bytes)
system.membus.pkt_count_system.cpu0.icache_port::total    585068878                       # Packet count per connected master and slave (bytes)
system.membus.pkt_count_system.cpu0.dcache_port::system.bridge.slave      5855354                       # Packet count per connected master and slave (bytes)
system.membus.pkt_count_system.cpu0.dcache_port::system.cpu0.interrupts.pio        14118                       # Packet count per connected master and slave (bytes)
system.membus.pkt_count_system.cpu0.dcache_port::system.mem_ctrls.port    155991664                       # Packet count per connected master and slave (bytes)
system.membus.pkt_count_system.cpu0.dcache_port::total    161861136                       # Packet count per connected master and slave (bytes)
system.membus.pkt_count_system.cpu0.itb.walker.port::system.mem_ctrls.port        11550                       # Packet count per connected master and slave (bytes)
system.membus.pkt_count_system.cpu0.itb.walker.port::total        11550                       # Packet count per connected master and slave (bytes)
system.membus.pkt_count_system.cpu0.dtb.walker.port::system.mem_ctrls.port         9872                       # Packet count per connected master and slave (bytes)
system.membus.pkt_count_system.cpu0.dtb.walker.port::total         9872                       # Packet count per connected master and slave (bytes)
system.membus.pkt_count_system.cpu0.interrupts.int_master::system.cpu1.interrupts.int_slave         3052                       # Packet count per connected master and slave (bytes)
system.membus.pkt_count_system.cpu0.interrupts.int_master::total         3052                       # Packet count per connected master and slave (bytes)
system.membus.pkt_count_system.cpu1.icache_port::system.mem_ctrls.port     44179922                       # Packet count per connected master and slave (bytes)
system.membus.pkt_count_system.cpu1.icache_port::total     44179922                       # Packet count per connected master and slave (bytes)
system.membus.pkt_count_system.cpu1.dcache_port::system.bridge.slave         4592                       # Packet count per connected master and slave (bytes)
system.membus.pkt_count_system.cpu1.dcache_port::system.cpu1.interrupts.pio        11476                       # Packet count per connected master and slave (bytes)
system.membus.pkt_count_system.cpu1.dcache_port::system.mem_ctrls.port     17352210                       # Packet count per connected master and slave (bytes)
system.membus.pkt_count_system.cpu1.dcache_port::total     17368278                       # Packet count per connected master and slave (bytes)
system.membus.pkt_count_system.cpu1.itb.walker.port::system.mem_ctrls.port         2180                       # Packet count per connected master and slave (bytes)
system.membus.pkt_count_system.cpu1.itb.walker.port::total         2180                       # Packet count per connected master and slave (bytes)
system.membus.pkt_count_system.cpu1.dtb.walker.port::system.mem_ctrls.port         1534                       # Packet count per connected master and slave (bytes)
system.membus.pkt_count_system.cpu1.dtb.walker.port::total         1534                       # Packet count per connected master and slave (bytes)
system.membus.pkt_count_system.cpu1.interrupts.int_master::system.cpu0.interrupts.int_slave         1918                       # Packet count per connected master and slave (bytes)
system.membus.pkt_count_system.cpu1.interrupts.int_master::total         1918                       # Packet count per connected master and slave (bytes)
system.membus.pkt_count::total              808594764                       # Packet count per connected master and slave (bytes)
system.membus.pkt_size_system.apicbridge.master::system.cpu0.interrupts.int_slave         1036                       # Cumulative packet size per connected master and slave (bytes)
system.membus.pkt_size_system.apicbridge.master::system.cpu1.interrupts.int_slave          780                       # Cumulative packet size per connected master and slave (bytes)
system.membus.pkt_size_system.apicbridge.master::total         1816                       # Cumulative packet size per connected master and slave (bytes)
system.membus.pkt_size_system.iobridge.master::system.mem_ctrls.port      2703104                       # Cumulative packet size per connected master and slave (bytes)
system.membus.pkt_size_system.iobridge.master::total      2703104                       # Cumulative packet size per connected master and slave (bytes)
system.membus.pkt_size_system.cpu0.icache_port::system.mem_ctrls.port   2340275512                       # Cumulative packet size per connected master and slave (bytes)
system.membus.pkt_size_system.cpu0.icache_port::total   2340275512                       # Cumulative packet size per connected master and slave (bytes)
system.membus.pkt_size_system.cpu0.dcache_port::system.bridge.slave      2956131                       # Cumulative packet size per connected master and slave (bytes)
system.membus.pkt_size_system.cpu0.dcache_port::system.cpu0.interrupts.pio        28236                       # Cumulative packet size per connected master and slave (bytes)
system.membus.pkt_size_system.cpu0.dcache_port::system.mem_ctrls.port    328034744                       # Cumulative packet size per connected master and slave (bytes)
system.membus.pkt_size_system.cpu0.dcache_port::total    331019111                       # Cumulative packet size per connected master and slave (bytes)
system.membus.pkt_size_system.cpu0.itb.walker.port::system.mem_ctrls.port        46200                       # Cumulative packet size per connected master and slave (bytes)
system.membus.pkt_size_system.cpu0.itb.walker.port::total        46200                       # Cumulative packet size per connected master and slave (bytes)
system.membus.pkt_size_system.cpu0.dtb.walker.port::system.mem_ctrls.port        39488                       # Cumulative packet size per connected master and slave (bytes)
system.membus.pkt_size_system.cpu0.dtb.walker.port::total        39488                       # Cumulative packet size per connected master and slave (bytes)
system.membus.pkt_size_system.cpu0.interrupts.int_master::system.cpu1.interrupts.int_slave         6104                       # Cumulative packet size per connected master and slave (bytes)
system.membus.pkt_size_system.cpu0.interrupts.int_master::total         6104                       # Cumulative packet size per connected master and slave (bytes)
system.membus.pkt_size_system.cpu1.icache_port::system.mem_ctrls.port    176719688                       # Cumulative packet size per connected master and slave (bytes)
system.membus.pkt_size_system.cpu1.icache_port::total    176719688                       # Cumulative packet size per connected master and slave (bytes)
system.membus.pkt_size_system.cpu1.dcache_port::system.bridge.slave         2755                       # Cumulative packet size per connected master and slave (bytes)
system.membus.pkt_size_system.cpu1.dcache_port::system.cpu1.interrupts.pio        22952                       # Cumulative packet size per connected master and slave (bytes)
system.membus.pkt_size_system.cpu1.dcache_port::system.mem_ctrls.port     61093886                       # Cumulative packet size per connected master and slave (bytes)
system.membus.pkt_size_system.cpu1.dcache_port::total     61119593                       # Cumulative packet size per connected master and slave (bytes)
system.membus.pkt_size_system.cpu1.itb.walker.port::system.mem_ctrls.port         8720                       # Cumulative packet size per connected master and slave (bytes)
system.membus.pkt_size_system.cpu1.itb.walker.port::total         8720                       # Cumulative packet size per connected master and slave (bytes)
system.membus.pkt_size_system.cpu1.dtb.walker.port::system.mem_ctrls.port         6136                       # Cumulative packet size per connected master and slave (bytes)
system.membus.pkt_size_system.cpu1.dtb.walker.port::total         6136                       # Cumulative packet size per connected master and slave (bytes)
system.membus.pkt_size_system.cpu1.interrupts.int_master::system.cpu0.interrupts.int_slave         3836                       # Cumulative packet size per connected master and slave (bytes)
system.membus.pkt_size_system.cpu1.interrupts.int_master::total         3836                       # Cumulative packet size per connected master and slave (bytes)
system.membus.pkt_size::total              2911949308                       # Cumulative packet size per connected master and slave (bytes)
system.membus.snoops                                0                       # Total snoops (count)
system.membus.snoop_fanout::samples         401351673                       # Request fanout histogram
system.membus.snoop_fanout::mean             5.784019                       # Request fanout histogram
system.membus.snoop_fanout::stdev            0.411501                       # Request fanout histogram
system.membus.snoop_fanout::underflows              0      0.00%      0.00% # Request fanout histogram
system.membus.snoop_fanout::0                       0      0.00%      0.00% # Request fanout histogram
system.membus.snoop_fanout::1                       0      0.00%      0.00% # Request fanout histogram
system.membus.snoop_fanout::2                       0      0.00%      0.00% # Request fanout histogram
system.membus.snoop_fanout::3                       0      0.00%      0.00% # Request fanout histogram
system.membus.snoop_fanout::4                       0      0.00%      0.00% # Request fanout histogram
system.membus.snoop_fanout::5                86684505     21.60%     21.60% # Request fanout histogram
system.membus.snoop_fanout::6               314667168     78.40%    100.00% # Request fanout histogram
system.membus.snoop_fanout::overflows               0      0.00%    100.00% # Request fanout histogram
system.membus.snoop_fanout::min_value               5                       # Request fanout histogram
system.membus.snoop_fanout::max_value               6                       # Request fanout histogram
system.membus.snoop_fanout::total           401351673                       # Request fanout histogram
system.cpu_voltage_domain.voltage                   1                       # Voltage in Volts
system.pc.south_bridge.ide.disks0.dma_read_full_pages            9                       # Number of full page size DMA reads (not PRD).
system.pc.south_bridge.ide.disks0.dma_read_bytes        36864                       # Number of bytes transfered via DMA reads (not PRD).
system.pc.south_bridge.ide.disks0.dma_read_txs            9                       # Number of DMA read transactions (not PRD).
system.pc.south_bridge.ide.disks0.dma_write_full_pages          648                       # Number of full page size DMA writes.
system.pc.south_bridge.ide.disks0.dma_write_bytes      2657280                       # Number of bytes transfered via DMA writes.
system.pc.south_bridge.ide.disks0.dma_write_txs          652                       # Number of DMA write transactions.
system.pc.south_bridge.ide.disks1.dma_read_full_pages            0                       # Number of full page size DMA reads (not PRD).
system.pc.south_bridge.ide.disks1.dma_read_bytes            0                       # Number of bytes transfered via DMA reads (not PRD).
system.pc.south_bridge.ide.disks1.dma_read_txs            0                       # Number of DMA read transactions (not PRD).
system.pc.south_bridge.ide.disks1.dma_write_full_pages            1                       # Number of full page size DMA writes.
system.pc.south_bridge.ide.disks1.dma_write_bytes         4096                       # Number of bytes transfered via DMA writes.
system.pc.south_bridge.ide.disks1.dma_write_txs            1                       # Number of DMA write transactions.
system.iobus.trans_dist::ReadReq              2919795                       # Transaction distribution
system.iobus.trans_dist::ReadResp             2919795                       # Transaction distribution
system.iobus.trans_dist::WriteReq               52946                       # Transaction distribution
system.iobus.trans_dist::WriteResp              52946                       # Transaction distribution
system.iobus.trans_dist::MessageReq               454                       # Transaction distribution
system.iobus.trans_dist::MessageResp              454                       # Transaction distribution
system.iobus.pkt_count_system.bridge.master::system.pc.south_bridge.cmos.pio           52                       # Packet count per connected master and slave (bytes)
system.iobus.pkt_count_system.bridge.master::system.pc.south_bridge.dma1.pio            6                       # Packet count per connected master and slave (bytes)
system.iobus.pkt_count_system.bridge.master::system.pc.south_bridge.ide.pio         6304                       # Packet count per connected master and slave (bytes)
system.iobus.pkt_count_system.bridge.master::system.pc.south_bridge.ide-pciconf          180                       # Packet count per connected master and slave (bytes)
system.iobus.pkt_count_system.bridge.master::system.pc.south_bridge.keyboard.pio         1376                       # Packet count per connected master and slave (bytes)
system.iobus.pkt_count_system.bridge.master::system.pc.south_bridge.pic1.pio           56                       # Packet count per connected master and slave (bytes)
system.iobus.pkt_count_system.bridge.master::system.pc.south_bridge.pic2.pio           52                       # Packet count per connected master and slave (bytes)
system.iobus.pkt_count_system.bridge.master::system.pc.south_bridge.pit.pio      5795590                       # Packet count per connected master and slave (bytes)
system.iobus.pkt_count_system.bridge.master::system.pc.south_bridge.speaker.pio            4                       # Packet count per connected master and slave (bytes)
system.iobus.pkt_count_system.bridge.master::system.pc.south_bridge.io_apic.pio         1218                       # Packet count per connected master and slave (bytes)
system.iobus.pkt_count_system.bridge.master::system.pc.i_dont_exist.pio           60                       # Packet count per connected master and slave (bytes)
system.iobus.pkt_count_system.bridge.master::system.pc.behind_pci.pio            2                       # Packet count per connected master and slave (bytes)
system.iobus.pkt_count_system.bridge.master::system.pc.com_1.pio        36220                       # Packet count per connected master and slave (bytes)
system.iobus.pkt_count_system.bridge.master::system.pc.fake_com_2.pio           12                       # Packet count per connected master and slave (bytes)
system.iobus.pkt_count_system.bridge.master::system.pc.fake_com_3.pio           12                       # Packet count per connected master and slave (bytes)
system.iobus.pkt_count_system.bridge.master::system.pc.fake_com_4.pio           12                       # Packet count per connected master and slave (bytes)
system.iobus.pkt_count_system.bridge.master::system.pc.fake_floppy.pio           10                       # Packet count per connected master and slave (bytes)
system.iobus.pkt_count_system.bridge.master::system.pc.pciconfig.pio        18780                       # Packet count per connected master and slave (bytes)
system.iobus.pkt_count_system.bridge.master::total      5859946                       # Packet count per connected master and slave (bytes)
system.iobus.pkt_count_system.pc.south_bridge.ide.dma::system.iobridge.slave        85536                       # Packet count per connected master and slave (bytes)
system.iobus.pkt_count_system.pc.south_bridge.ide.dma::total        85536                       # Packet count per connected master and slave (bytes)
system.iobus.pkt_count_system.pc.south_bridge.io_apic.int_master::system.apicbridge.slave          908                       # Packet count per connected master and slave (bytes)
system.iobus.pkt_count_system.pc.south_bridge.io_apic.int_master::total          908                       # Packet count per connected master and slave (bytes)
system.iobus.pkt_count::total                 5946390                       # Packet count per connected master and slave (bytes)
system.iobus.pkt_size_system.bridge.master::system.pc.south_bridge.cmos.pio           26                       # Cumulative packet size per connected master and slave (bytes)
system.iobus.pkt_size_system.bridge.master::system.pc.south_bridge.dma1.pio            3                       # Cumulative packet size per connected master and slave (bytes)
system.iobus.pkt_size_system.bridge.master::system.pc.south_bridge.ide.pio         3985                       # Cumulative packet size per connected master and slave (bytes)
system.iobus.pkt_size_system.bridge.master::system.pc.south_bridge.ide-pciconf          219                       # Cumulative packet size per connected master and slave (bytes)
system.iobus.pkt_size_system.bridge.master::system.pc.south_bridge.keyboard.pio          688                       # Cumulative packet size per connected master and slave (bytes)
system.iobus.pkt_size_system.bridge.master::system.pc.south_bridge.pic1.pio           28                       # Cumulative packet size per connected master and slave (bytes)
system.iobus.pkt_size_system.bridge.master::system.pc.south_bridge.pic2.pio           26                       # Cumulative packet size per connected master and slave (bytes)
system.iobus.pkt_size_system.bridge.master::system.pc.south_bridge.pit.pio      2897795                       # Cumulative packet size per connected master and slave (bytes)
system.iobus.pkt_size_system.bridge.master::system.pc.south_bridge.speaker.pio            2                       # Cumulative packet size per connected master and slave (bytes)
system.iobus.pkt_size_system.bridge.master::system.pc.south_bridge.io_apic.pio         2436                       # Cumulative packet size per connected master and slave (bytes)
system.iobus.pkt_size_system.bridge.master::system.pc.i_dont_exist.pio           30                       # Cumulative packet size per connected master and slave (bytes)
system.iobus.pkt_size_system.bridge.master::system.pc.behind_pci.pio            1                       # Cumulative packet size per connected master and slave (bytes)
system.iobus.pkt_size_system.bridge.master::system.pc.com_1.pio        18110                       # Cumulative packet size per connected master and slave (bytes)
system.iobus.pkt_size_system.bridge.master::system.pc.fake_com_2.pio            6                       # Cumulative packet size per connected master and slave (bytes)
system.iobus.pkt_size_system.bridge.master::system.pc.fake_com_3.pio            6                       # Cumulative packet size per connected master and slave (bytes)
system.iobus.pkt_size_system.bridge.master::system.pc.fake_com_4.pio            6                       # Cumulative packet size per connected master and slave (bytes)
system.iobus.pkt_size_system.bridge.master::system.pc.fake_floppy.pio            5                       # Cumulative packet size per connected master and slave (bytes)
system.iobus.pkt_size_system.bridge.master::system.pc.pciconfig.pio        35514                       # Cumulative packet size per connected master and slave (bytes)
system.iobus.pkt_size_system.bridge.master::total      2958886                       # Cumulative packet size per connected master and slave (bytes)
system.iobus.pkt_size_system.pc.south_bridge.ide.dma::system.iobridge.slave      2703104                       # Cumulative packet size per connected master and slave (bytes)
system.iobus.pkt_size_system.pc.south_bridge.ide.dma::total      2703104                       # Cumulative packet size per connected master and slave (bytes)
system.iobus.pkt_size_system.pc.south_bridge.io_apic.int_master::system.apicbridge.slave         1816                       # Cumulative packet size per connected master and slave (bytes)
system.iobus.pkt_size_system.pc.south_bridge.io_apic.int_master::total         1816                       # Cumulative packet size per connected master and slave (bytes)
system.iobus.pkt_size::total                  5663806                       # Cumulative packet size per connected master and slave (bytes)
system.cpu_clk_domain.clock                       500                       # Clock period in ticks
system.cpu0.apic_clk_domain.clock                8000                       # Clock period in ticks
system.cpu0.numCycles                      9514649581                       # number of cpu cycles simulated
system.cpu0.numWorkItemsStarted                     0                       # number of work items this cpu started
system.cpu0.numWorkItemsCompleted                   0                       # number of work items this cpu completed
system.cpu0.committedInsts                  221391063                       # Number of instructions committed
system.cpu0.committedOps                    567213708                       # Number of ops (including micro ops) committed
system.cpu0.num_int_alu_accesses            505134668                       # Number of integer alu accesses
system.cpu0.num_fp_alu_accesses                 37311                       # Number of float alu accesses
system.cpu0.num_func_calls                    2601600                       # number of times a function call or return occured
system.cpu0.num_conditional_control_insts     69256891                       # number of instructions that are conditional controls
system.cpu0.num_int_insts                   505134668                       # number of integer instructions
system.cpu0.num_fp_insts                        37311                       # number of float instructions
system.cpu0.num_int_register_reads          803584169                       # number of times the integer registers were read
system.cpu0.num_int_register_writes         423732929                       # number of times the integer registers were written
system.cpu0.num_fp_register_reads               61663                       # number of times the floating registers were read
system.cpu0.num_fp_register_writes              29676                       # number of times the floating registers were written
system.cpu0.num_cc_register_reads           362257099                       # number of times the CC registers were read
system.cpu0.num_cc_register_writes          160529025                       # number of times the CC registers were written
system.cpu0.num_mem_refs                     80933704                       # number of memory refs
system.cpu0.num_load_insts                   65960766                       # Number of load instructions
system.cpu0.num_store_insts                  14972938                       # Number of store instructions
system.cpu0.num_idle_cycles              8877124184.397364                       # Number of idle cycles
system.cpu0.num_busy_cycles              637525396.602637                       # Number of busy cycles
system.cpu0.not_idle_fraction                0.067005                       # Percentage of non-idle cycles
system.cpu0.idle_fraction                    0.932995                       # Percentage of idle cycles
system.cpu0.Branches                         73494176                       # Number of branches fetched
system.cpu0.op_class::No_OpClass              7453070      1.31%      1.31% # Class of executed instruction
system.cpu0.op_class::IntAlu                478577990     84.37%     85.69% # Class of executed instruction
system.cpu0.op_class::IntMult                  199480      0.04%     85.72% # Class of executed instruction
system.cpu0.op_class::IntDiv                    23275      0.00%     85.73% # Class of executed instruction
system.cpu0.op_class::FloatAdd                  26568      0.00%     85.73% # Class of executed instruction
system.cpu0.op_class::FloatCmp                      0      0.00%     85.73% # Class of executed instruction
system.cpu0.op_class::FloatCvt                      0      0.00%     85.73% # Class of executed instruction
system.cpu0.op_class::FloatMult                     0      0.00%     85.73% # Class of executed instruction
system.cpu0.op_class::FloatDiv                      0      0.00%     85.73% # Class of executed instruction
system.cpu0.op_class::FloatSqrt                     0      0.00%     85.73% # Class of executed instruction
system.cpu0.op_class::SimdAdd                       0      0.00%     85.73% # Class of executed instruction
system.cpu0.op_class::SimdAddAcc                    0      0.00%     85.73% # Class of executed instruction
system.cpu0.op_class::SimdAlu                       0      0.00%     85.73% # Class of executed instruction
system.cpu0.op_class::SimdCmp                       0      0.00%     85.73% # Class of executed instruction
system.cpu0.op_class::SimdCvt                       0      0.00%     85.73% # Class of executed instruction
system.cpu0.op_class::SimdMisc                      0      0.00%     85.73% # Class of executed instruction
system.cpu0.op_class::SimdMult                      0      0.00%     85.73% # Class of executed instruction
system.cpu0.op_class::SimdMultAcc                   0      0.00%     85.73% # Class of executed instruction
system.cpu0.op_class::SimdShift                     0      0.00%     85.73% # Class of executed instruction
system.cpu0.op_class::SimdShiftAcc                  0      0.00%     85.73% # Class of executed instruction
system.cpu0.op_class::SimdSqrt                      0      0.00%     85.73% # Class of executed instruction
system.cpu0.op_class::SimdFloatAdd                  0      0.00%     85.73% # Class of executed instruction
system.cpu0.op_class::SimdFloatAlu                  0      0.00%     85.73% # Class of executed instruction
system.cpu0.op_class::SimdFloatCmp                  0      0.00%     85.73% # Class of executed instruction
system.cpu0.op_class::SimdFloatCvt                  0      0.00%     85.73% # Class of executed instruction
system.cpu0.op_class::SimdFloatDiv                  0      0.00%     85.73% # Class of executed instruction
system.cpu0.op_class::SimdFloatMisc                 0      0.00%     85.73% # Class of executed instruction
system.cpu0.op_class::SimdFloatMult                 0      0.00%     85.73% # Class of executed instruction
system.cpu0.op_class::SimdFloatMultAcc              0      0.00%     85.73% # Class of executed instruction
system.cpu0.op_class::SimdFloatSqrt                 0      0.00%     85.73% # Class of executed instruction
system.cpu0.op_class::MemRead                65960766     11.63%     97.36% # Class of executed instruction
system.cpu0.op_class::MemWrite               14972938      2.64%    100.00% # Class of executed instruction
system.cpu0.op_class::IprAccess                     0      0.00%    100.00% # Class of executed instruction
system.cpu0.op_class::InstPrefetch                  0      0.00%    100.00% # Class of executed instruction
system.cpu0.op_class::total                 567214087                       # Class of executed instruction
system.cpu0.kern.inst.arm                           0                       # number of arm instructions executed
system.cpu0.kern.inst.quiesce                    5441                       # number of quiesce instructions executed
system.cpu1.apic_clk_domain.clock                8000                       # Clock period in ticks
system.cpu1.numCycles                      9513660888                       # number of cpu cycles simulated
system.cpu1.numWorkItemsStarted                     0                       # number of work items this cpu started
system.cpu1.numWorkItemsCompleted                   0                       # number of work items this cpu completed
system.cpu1.committedInsts                   16637223                       # Number of instructions committed
system.cpu1.committedOps                     34538619                       # Number of ops (including micro ops) committed
system.cpu1.num_int_alu_accesses             33510243                       # Number of integer alu accesses
system.cpu1.num_fp_alu_accesses                  5781                       # Number of float alu accesses
system.cpu1.num_func_calls                     804731                       # number of times a function call or return occured
system.cpu1.num_conditional_control_insts      2572691                       # number of instructions that are conditional controls
system.cpu1.num_int_insts                    33510243                       # number of integer instructions
system.cpu1.num_fp_insts                         5781                       # number of float instructions
system.cpu1.num_int_register_reads           68933653                       # number of times the integer registers were read
system.cpu1.num_int_register_writes          27030671                       # number of times the integer registers were written
system.cpu1.num_fp_register_reads                9443                       # number of times the floating registers were read
system.cpu1.num_fp_register_writes               4493                       # number of times the floating registers were written
system.cpu1.num_cc_register_reads            18210538                       # number of times the CC registers were read
system.cpu1.num_cc_register_writes           10690447                       # number of times the CC registers were written
system.cpu1.num_mem_refs                      8676038                       # number of memory refs
system.cpu1.num_load_insts                    5121567                       # Number of load instructions
system.cpu1.num_store_insts                   3554471                       # Number of store instructions
system.cpu1.num_idle_cycles              9473919553.636444                       # Number of idle cycles
system.cpu1.num_busy_cycles              39741334.363557                       # Number of busy cycles
system.cpu1.not_idle_fraction                0.004177                       # Percentage of non-idle cycles
system.cpu1.idle_fraction                    0.995823                       # Percentage of idle cycles
system.cpu1.Branches                          3632731                       # Number of branches fetched
system.cpu1.op_class::No_OpClass               661391      1.91%      1.91% # Class of executed instruction
system.cpu1.op_class::IntAlu                 25118828     72.73%     74.64% # Class of executed instruction
system.cpu1.op_class::IntMult                   57736      0.17%     74.81% # Class of executed instruction
system.cpu1.op_class::IntDiv                    20572      0.06%     74.87% # Class of executed instruction
system.cpu1.op_class::FloatAdd                   4098      0.01%     74.88% # Class of executed instruction
system.cpu1.op_class::FloatCmp                      0      0.00%     74.88% # Class of executed instruction
system.cpu1.op_class::FloatCvt                      0      0.00%     74.88% # Class of executed instruction
system.cpu1.op_class::FloatMult                     0      0.00%     74.88% # Class of executed instruction
system.cpu1.op_class::FloatDiv                      0      0.00%     74.88% # Class of executed instruction
system.cpu1.op_class::FloatSqrt                     0      0.00%     74.88% # Class of executed instruction
system.cpu1.op_class::SimdAdd                       0      0.00%     74.88% # Class of executed instruction
system.cpu1.op_class::SimdAddAcc                    0      0.00%     74.88% # Class of executed instruction
system.cpu1.op_class::SimdAlu                       0      0.00%     74.88% # Class of executed instruction
system.cpu1.op_class::SimdCmp                       0      0.00%     74.88% # Class of executed instruction
system.cpu1.op_class::SimdCvt                       0      0.00%     74.88% # Class of executed instruction
system.cpu1.op_class::SimdMisc                      0      0.00%     74.88% # Class of executed instruction
system.cpu1.op_class::SimdMult                      0      0.00%     74.88% # Class of executed instruction
system.cpu1.op_class::SimdMultAcc                   0      0.00%     74.88% # Class of executed instruction
system.cpu1.op_class::SimdShift                     0      0.00%     74.88% # Class of executed instruction
system.cpu1.op_class::SimdShiftAcc                  0      0.00%     74.88% # Class of executed instruction
system.cpu1.op_class::SimdSqrt                      0      0.00%     74.88% # Class of executed instruction
system.cpu1.op_class::SimdFloatAdd                  0      0.00%     74.88% # Class of executed instruction
system.cpu1.op_class::SimdFloatAlu                  0      0.00%     74.88% # Class of executed instruction
system.cpu1.op_class::SimdFloatCmp                  0      0.00%     74.88% # Class of executed instruction
system.cpu1.op_class::SimdFloatCvt                  0      0.00%     74.88% # Class of executed instruction
system.cpu1.op_class::SimdFloatDiv                  0      0.00%     74.88% # Class of executed instruction
system.cpu1.op_class::SimdFloatMisc                 0      0.00%     74.88% # Class of executed instruction
system.cpu1.op_class::SimdFloatMult                 0      0.00%     74.88% # Class of executed instruction
system.cpu1.op_class::SimdFloatMultAcc              0      0.00%     74.88% # Class of executed instruction
system.cpu1.op_class::SimdFloatSqrt                 0      0.00%     74.88% # Class of executed instruction
system.cpu1.op_class::MemRead                 5121567     14.83%     89.71% # Class of executed instruction
system.cpu1.op_class::MemWrite                3554471     10.29%    100.00% # Class of executed instruction
system.cpu1.op_class::IprAccess                     0      0.00%    100.00% # Class of executed instruction
system.cpu1.op_class::InstPrefetch                  0      0.00%    100.00% # Class of executed instruction
system.cpu1.op_class::total                  34538663                       # Class of executed instruction
system.cpu1.kern.inst.arm                           0                       # number of arm instructions executed
system.cpu1.kern.inst.quiesce                     249                       # number of quiesce instructions executed

---------- End Simulation Statistics   ----------

---------- Begin Simulation Statistics ----------
sim_seconds                                  0.005788                       # Number of seconds simulated
sim_ticks                                  5787842500                       # Number of ticks simulated
final_tick                               4762664951000                       # Number of ticks from beginning of simulation (restored from checkpoints and never reset)
sim_freq                                 1000000000000                       # Frequency of simulated ticks
host_inst_rate                               41336251                       # Simulator instruction rate (inst/s)
host_op_rate                                103439549                       # Simulator op (including micro ops) rate (op/s)
host_tick_rate                              970866345                       # Simulator tick rate (ticks/s)
host_mem_usage                                 784944                       # Number of bytes of host memory used
host_seconds                                     5.96                       # Real time elapsed on the host
sim_insts                                   246425961                       # Number of instructions simulated
sim_ops                                     616656000                       # Number of ops (including micro ops) simulated
system.voltage_domain.voltage                       1                       # Voltage in Volts
system.clk_domain.clock                          1000                       # Clock period in ticks
system.mem_ctrls.bytes_read::pc.south_bridge.ide         2512                       # Number of bytes read from this memory
system.mem_ctrls.bytes_read::cpu0.dtb.walker        54720                       # Number of bytes read from this memory
system.mem_ctrls.bytes_read::cpu0.itb.walker         8544                       # Number of bytes read from this memory
system.mem_ctrls.bytes_read::cpu0.inst       47577536                       # Number of bytes read from this memory
system.mem_ctrls.bytes_read::cpu0.data        8346187                       # Number of bytes read from this memory
system.mem_ctrls.bytes_read::cpu1.dtb.walker        54072                       # Number of bytes read from this memory
system.mem_ctrls.bytes_read::cpu1.itb.walker         5120                       # Number of bytes read from this memory
system.mem_ctrls.bytes_read::cpu1.inst       43813120                       # Number of bytes read from this memory
system.mem_ctrls.bytes_read::cpu1.data        7862769                       # Number of bytes read from this memory
system.mem_ctrls.bytes_read::total          107724580                       # Number of bytes read from this memory
system.mem_ctrls.bytes_inst_read::cpu0.inst     47577536                       # Number of instructions bytes read from this memory
system.mem_ctrls.bytes_inst_read::cpu1.inst     43813120                       # Number of instructions bytes read from this memory
system.mem_ctrls.bytes_inst_read::total      91390656                       # Number of instructions bytes read from this memory
system.mem_ctrls.bytes_written::pc.south_bridge.ide      1286144                       # Number of bytes written to this memory
system.mem_ctrls.bytes_written::cpu0.data      5431075                       # Number of bytes written to this memory
system.mem_ctrls.bytes_written::cpu1.data      5118375                       # Number of bytes written to this memory
system.mem_ctrls.bytes_written::total        11835594                       # Number of bytes written to this memory
system.mem_ctrls.num_reads::pc.south_bridge.ide          314                       # Number of read requests responded to by this memory
system.mem_ctrls.num_reads::cpu0.dtb.walker         6840                       # Number of read requests responded to by this memory
system.mem_ctrls.num_reads::cpu0.itb.walker         1068                       # Number of read requests responded to by this memory
system.mem_ctrls.num_reads::cpu0.inst         5947192                       # Number of read requests responded to by this memory
system.mem_ctrls.num_reads::cpu0.data         1200944                       # Number of read requests responded to by this memory
system.mem_ctrls.num_reads::cpu1.dtb.walker         6759                       # Number of read requests responded to by this memory
system.mem_ctrls.num_reads::cpu1.itb.walker          640                       # Number of read requests responded to by this memory
system.mem_ctrls.num_reads::cpu1.inst         5476640                       # Number of read requests responded to by this memory
system.mem_ctrls.num_reads::cpu1.data         1123398                       # Number of read requests responded to by this memory
system.mem_ctrls.num_reads::total            13763795                       # Number of read requests responded to by this memory
system.mem_ctrls.num_writes::pc.south_bridge.ide        20096                       # Number of write requests responded to by this memory
system.mem_ctrls.num_writes::cpu0.data         746032                       # Number of write requests responded to by this memory
system.mem_ctrls.num_writes::cpu1.data         700619                       # Number of write requests responded to by this memory
system.mem_ctrls.num_writes::total            1466747                       # Number of write requests responded to by this memory
system.mem_ctrls.bw_read::pc.south_bridge.ide       434013                       # Total read bandwidth from this memory (bytes/s)
system.mem_ctrls.bw_read::cpu0.dtb.walker      9454300                       # Total read bandwidth from this memory (bytes/s)
system.mem_ctrls.bw_read::cpu0.itb.walker      1476198                       # Total read bandwidth from this memory (bytes/s)
system.mem_ctrls.bw_read::cpu0.inst        8220254093                       # Total read bandwidth from this memory (bytes/s)
system.mem_ctrls.bw_read::cpu0.data        1442020407                       # Total read bandwidth from this memory (bytes/s)
system.mem_ctrls.bw_read::cpu1.dtb.walker      9342341                       # Total read bandwidth from this memory (bytes/s)
system.mem_ctrls.bw_read::cpu1.itb.walker       884613                       # Total read bandwidth from this memory (bytes/s)
system.mem_ctrls.bw_read::cpu1.inst        7569853534                       # Total read bandwidth from this memory (bytes/s)
system.mem_ctrls.bw_read::cpu1.data        1358497402                       # Total read bandwidth from this memory (bytes/s)
system.mem_ctrls.bw_read::total           18612216901                       # Total read bandwidth from this memory (bytes/s)
system.mem_ctrls.bw_inst_read::cpu0.inst   8220254093                       # Instruction read bandwidth from this memory (bytes/s)
system.mem_ctrls.bw_inst_read::cpu1.inst   7569853534                       # Instruction read bandwidth from this memory (bytes/s)
system.mem_ctrls.bw_inst_read::total      15790107626                       # Instruction read bandwidth from this memory (bytes/s)
system.mem_ctrls.bw_write::pc.south_bridge.ide    222214754                       # Write bandwidth from this memory (bytes/s)
system.mem_ctrls.bw_write::cpu0.data        938359155                       # Write bandwidth from this memory (bytes/s)
system.mem_ctrls.bw_write::cpu1.data        884332115                       # Write bandwidth from this memory (bytes/s)
system.mem_ctrls.bw_write::total           2044906025                       # Write bandwidth from this memory (bytes/s)
system.mem_ctrls.bw_total::pc.south_bridge.ide    222648768                       # Total bandwidth to/from this memory (bytes/s)
system.mem_ctrls.bw_total::cpu0.dtb.walker      9454300                       # Total bandwidth to/from this memory (bytes/s)
system.mem_ctrls.bw_total::cpu0.itb.walker      1476198                       # Total bandwidth to/from this memory (bytes/s)
system.mem_ctrls.bw_total::cpu0.inst       8220254093                       # Total bandwidth to/from this memory (bytes/s)
system.mem_ctrls.bw_total::cpu0.data       2380379563                       # Total bandwidth to/from this memory (bytes/s)
system.mem_ctrls.bw_total::cpu1.dtb.walker      9342341                       # Total bandwidth to/from this memory (bytes/s)
system.mem_ctrls.bw_total::cpu1.itb.walker       884613                       # Total bandwidth to/from this memory (bytes/s)
system.mem_ctrls.bw_total::cpu1.inst       7569853534                       # Total bandwidth to/from this memory (bytes/s)
system.mem_ctrls.bw_total::cpu1.data       2242829517                       # Total bandwidth to/from this memory (bytes/s)
system.mem_ctrls.bw_total::total          20657122926                       # Total bandwidth to/from this memory (bytes/s)
system.mem_ctrls.readReqs                           0                       # Number of read requests accepted
system.mem_ctrls.writeReqs                          0                       # Number of write requests accepted
system.mem_ctrls.readBursts                         0                       # Number of DRAM read bursts, including those serviced by the write queue
system.mem_ctrls.writeBursts                        0                       # Number of DRAM write bursts, including those merged in the write queue
system.mem_ctrls.bytesReadDRAM                      0                       # Total number of bytes read from DRAM
system.mem_ctrls.bytesReadWrQ                       0                       # Total number of bytes read from write queue
system.mem_ctrls.bytesWritten                       0                       # Total number of bytes written to DRAM
system.mem_ctrls.bytesReadSys                       0                       # Total read bytes from the system interface side
system.mem_ctrls.bytesWrittenSys                    0                       # Total written bytes from the system interface side
system.mem_ctrls.servicedByWrQ                      0                       # Number of DRAM read bursts serviced by the write queue
system.mem_ctrls.mergedWrBursts                     0                       # Number of DRAM write bursts merged with an existing one
[...]
system.membus.trans_dist::SoftPFResp              854                       # Transaction distribution
system.membus.pkt_count_system.cpu0.icache_port::system.mem_ctrls.port       520800                       # Packet count per connected master and slave (bytes)
system.membus.pkt_count_system.cpu0.icache_port::total       520800                       # Packet count per connected master and slave (bytes)
system.membus.pkt_count_system.cpu0.dcache_port::system.mem_ctrls.port       185848                       # Packet count per connected master and slave (bytes)
system.membus.pkt_count_system.cpu0.dcache_port::total       185848                       # Packet count per connected master and slave (bytes)
system.membus.pkt_count_system.cpu0.itb.walker.port::system.mem_ctrls.port          924                       # Packet count per connected master and slave (bytes)
system.membus.pkt_count_system.cpu0.itb.walker.port::total          924                       # Packet count per connected master and slave (bytes)
system.membus.pkt_count_system.cpu0.dtb.walker.port::system.mem_ctrls.port          602                       # Packet count per connected master and slave (bytes)
system.membus.pkt_count_system.cpu0.dtb.walker.port::total          602                       # Packet count per connected master and slave (bytes)
system.membus.pkt_count::total                 708174                       # Packet count per connected master and slave (bytes)
system.membus.pkt_size_system.cpu0.icache_port::system.mem_ctrls.port      2083200                       # Cumulative packet size per connected master and slave (bytes)
system.membus.pkt_size_system.cpu0.icache_port::total      2083200                       # Cumulative packet size per connected master and slave (bytes)
system.membus.pkt_size_system.cpu0.dcache_port::system.mem_ctrls.port       658470                       # Cumulative packet size per connected master and slave (bytes)
system.membus.pkt_size_system.cpu0.dcache_port::total       658470                       # Cumulative packet size per connected master and slave (bytes)
system.membus.pkt_size_system.cpu0.itb.walker.port::system.mem_ctrls.port         3696                       # Cumulative packet size per connected master and slave (bytes)
system.membus.pkt_size_system.cpu0.itb.walker.port::total         3696                       # Cumulative packet size per connected master and slave (bytes)
system.membus.pkt_size_system.cpu0.dtb.walker.port::system.mem_ctrls.port         2408                       # Cumulative packet size per connected master and slave (bytes)
system.membus.pkt_size_system.cpu0.dtb.walker.port::total         2408                       # Cumulative packet size per connected master and slave (bytes)
system.membus.pkt_size::total                 2747774                       # Cumulative packet size per connected master and slave (bytes)
system.membus.snoops                                0                       # Total snoops (count)
system.membus.snoop_fanout::samples            354087                       # Request fanout histogram
system.membus.snoop_fanout::mean             5.735412                       # Request fanout histogram
system.membus.snoop_fanout::stdev            0.441114                       # Request fanout histogram
system.membus.snoop_fanout::underflows              0      0.00%      0.00% # Request fanout histogram
system.membus.snoop_fanout::0                       0      0.00%      0.00% # Request fanout histogram
system.membus.snoop_fanout::1                       0      0.00%      0.00% # Request fanout histogram
system.membus.snoop_fanout::2                       0      0.00%      0.00% # Request fanout histogram
system.membus.snoop_fanout::3                       0      0.00%      0.00% # Request fanout histogram
system.membus.snoop_fanout::4                       0      0.00%      0.00% # Request fanout histogram
system.membus.snoop_fanout::5                   93687     26.46%     26.46% # Request fanout histogram
system.membus.snoop_fanout::6                  260400     73.54%    100.00% # Request fanout histogram
system.membus.snoop_fanout::overflows               0      0.00%    100.00% # Request fanout histogram
system.membus.snoop_fanout::min_value               5                       # Request fanout histogram
system.membus.snoop_fanout::max_value               6                       # Request fanout histogram
system.membus.snoop_fanout::total              354087                       # Request fanout histogram
system.cpu_voltage_domain.voltage                   1                       # Voltage in Volts
system.pc.south_bridge.ide.disks0.dma_read_full_pages            0                       # Number of full page size DMA reads (not PRD).
system.pc.south_bridge.ide.disks0.dma_read_bytes            0                       # Number of bytes transfered via DMA reads (not PRD).
system.pc.south_bridge.ide.disks0.dma_read_txs            0                       # Number of DMA read transactions (not PRD).
system.pc.south_bridge.ide.disks0.dma_write_full_pages            0                       # Number of full page size DMA writes.
system.pc.south_bridge.ide.disks0.dma_write_bytes            0                       # Number of bytes transfered via DMA writes.
system.pc.south_bridge.ide.disks0.dma_write_txs            0                       # Number of DMA write transactions.
system.pc.south_bridge.ide.disks1.dma_read_full_pages            0                       # Number of full page size DMA reads (not PRD).
system.pc.south_bridge.ide.disks1.dma_read_bytes            0                       # Number of bytes transfered via DMA reads (not PRD).
system.pc.south_bridge.ide.disks1.dma_read_txs            0                       # Number of DMA read transactions (not PRD).
system.pc.south_bridge.ide.disks1.dma_write_full_pages            0                       # Number of full page size DMA writes.
system.pc.south_bridge.ide.disks1.dma_write_bytes            0                       # Number of bytes transfered via DMA writes.
system.pc.south_bridge.ide.disks1.dma_write_txs            0                       # Number of DMA write transactions.
system.cpu_clk_domain.clock                       500                       # Clock period in ticks
system.cpu0.apic_clk_domain.clock                8000                       # Clock period in ticks
system.cpu0.numCycles                          416427                       # number of cpu cycles simulated
system.cpu0.numWorkItemsStarted                     0                       # number of work items this cpu started
system.cpu0.numWorkItemsCompleted                   0                       # number of work items this cpu completed
system.cpu0.committedInsts                     194000                       # Number of instructions committed
system.cpu0.committedOps                       349904                       # Number of ops (including micro ops) committed
system.cpu0.num_int_alu_accesses               342752                       # Number of integer alu accesses
system.cpu0.num_fp_alu_accesses                  1196                       # Number of float alu accesses
system.cpu0.num_func_calls                       7132                       # number of times a function call or return occured
system.cpu0.num_conditional_control_insts        26410                       # number of instructions that are conditional controls
system.cpu0.num_int_insts                      342752                       # number of integer instructions
system.cpu0.num_fp_insts                         1196                       # number of float instructions
system.cpu0.num_int_register_reads             723098                       # number of times the integer registers were read
system.cpu0.num_int_register_writes            263422                       # number of times the integer registers were written
system.cpu0.num_fp_register_reads                2009                       # number of times the floating registers were read
system.cpu0.num_fp_register_writes                943                       # number of times the floating registers were written
system.cpu0.num_cc_register_reads              184350                       # number of times the CC registers were read
system.cpu0.num_cc_register_writes             120525                       # number of times the CC registers were written
system.cpu0.num_mem_refs                        92952                       # number of memory refs
system.cpu0.num_load_insts                      46525                       # Number of load instructions
system.cpu0.num_store_insts                     46427                       # Number of store instructions
system.cpu0.num_idle_cycles                         0                       # Number of idle cycles
system.cpu0.num_busy_cycles                    416427                       # Number of busy cycles
system.cpu0.not_idle_fraction                       1                       # Percentage of non-idle cycles
system.cpu0.idle_fraction                           0                       # Percentage of idle cycles
system.cpu0.Branches                            36387                       # Number of branches fetched
system.cpu0.op_class::No_OpClass                 3332      0.95%      0.95% # Class of executed instruction
system.cpu0.op_class::IntAlu                   252064     72.03%     72.98% # Class of executed instruction
system.cpu0.op_class::IntMult                     622      0.18%     73.16% # Class of executed instruction
system.cpu0.op_class::IntDiv                       93      0.03%     73.19% # Class of executed instruction
system.cpu0.op_class::FloatAdd                    872      0.25%     73.44% # Class of executed instruction
system.cpu0.op_class::FloatCmp                      0      0.00%     73.44% # Class of executed instruction
system.cpu0.op_class::FloatCvt                      0      0.00%     73.44% # Class of executed instruction
system.cpu0.op_class::FloatMult                     0      0.00%     73.44% # Class of executed instruction
system.cpu0.op_class::FloatDiv                      0      0.00%     73.44% # Class of executed instruction
system.cpu0.op_class::FloatSqrt                     0      0.00%     73.44% # Class of executed instruction
system.cpu0.op_class::SimdAdd                       0      0.00%     73.44% # Class of executed instruction
system.cpu0.op_class::SimdAddAcc                    0      0.00%     73.44% # Class of executed instruction
system.cpu0.op_class::SimdAlu                       0      0.00%     73.44% # Class of executed instruction
system.cpu0.op_class::SimdCmp                       0      0.00%     73.44% # Class of executed instruction
system.cpu0.op_class::SimdCvt                       0      0.00%     73.44% # Class of executed instruction
system.cpu0.op_class::SimdMisc                      0      0.00%     73.44% # Class of executed instruction
system.cpu0.op_class::SimdMult                      0      0.00%     73.44% # Class of executed instruction
system.cpu0.op_class::SimdMultAcc                   0      0.00%     73.44% # Class of executed instruction
system.cpu0.op_class::SimdShift                     0      0.00%     73.44% # Class of executed instruction
system.cpu0.op_class::SimdShiftAcc                  0      0.00%     73.44% # Class of executed instruction
system.cpu0.op_class::SimdSqrt                      0      0.00%     73.44% # Class of executed instruction
system.cpu0.op_class::SimdFloatAdd                  0      0.00%     73.44% # Class of executed instruction
system.cpu0.op_class::SimdFloatAlu                  0      0.00%     73.44% # Class of executed instruction
system.cpu0.op_class::SimdFloatCmp                  0      0.00%     73.44% # Class of executed instruction
system.cpu0.op_class::SimdFloatCvt                  0      0.00%     73.44% # Class of executed instruction
system.cpu0.op_class::SimdFloatDiv                  0      0.00%     73.44% # Class of executed instruction
system.cpu0.op_class::SimdFloatMisc                 0      0.00%     73.44% # Class of executed instruction
system.cpu0.op_class::SimdFloatMult                 0      0.00%     73.44% # Class of executed instruction
system.cpu0.op_class::SimdFloatMultAcc              0      0.00%     73.44% # Class of executed instruction
system.cpu0.op_class::SimdFloatSqrt                 0      0.00%     73.44% # Class of executed instruction
system.cpu0.op_class::MemRead                   46525     13.30%     86.73% # Class of executed instruction
system.cpu0.op_class::MemWrite                  46427     13.27%    100.00% # Class of executed instruction
system.cpu0.op_class::IprAccess                     0      0.00%    100.00% # Class of executed instruction
system.cpu0.op_class::InstPrefetch                  0      0.00%    100.00% # Class of executed instruction
system.cpu0.op_class::total                    349935                       # Class of executed instruction
system.cpu0.kern.inst.arm                           0                       # number of arm instructions executed
system.cpu0.kern.inst.quiesce                       0                       # number of quiesce instructions executed
system.cpu1.apic_clk_domain.clock                8000                       # Clock period in ticks
system.cpu1.numCycles                               0                       # number of cpu cycles simulated
system.cpu1.numWorkItemsStarted                     0                       # number of work items this cpu started
system.cpu1.numWorkItemsCompleted                   0                       # number of work items this cpu completed
system.cpu1.committedInsts                          0                       # Number of instructions committed
system.cpu1.committedOps                            0                       # Number of ops (including micro ops) committed
system.cpu1.num_int_alu_accesses                    0                       # Number of integer alu accesses
system.cpu1.num_fp_alu_accesses                     0                       # Number of float alu accesses
system.cpu1.num_func_calls                          0                       # number of times a function call or return occured
system.cpu1.num_conditional_control_insts            0                       # number of instructions that are conditional controls
system.cpu1.num_int_insts                           0                       # number of integer instructions
system.cpu1.num_fp_insts                            0                       # number of float instructions
system.cpu1.num_int_register_reads                  0                       # number of times the integer registers were read
system.cpu1.num_int_register_writes                 0                       # number of times the integer registers were written
system.cpu1.num_fp_register_reads                   0                       # number of times the floating registers were read
system.cpu1.num_fp_register_writes                  0                       # number of times the floating registers were written
system.cpu1.num_mem_refs                            0                       # number of memory refs
system.cpu1.num_load_insts                          0                       # Number of load instructions
system.cpu1.num_store_insts                         0                       # Number of store instructions
system.cpu1.num_idle_cycles                         0                       # Number of idle cycles
system.cpu1.num_busy_cycles                         0                       # Number of busy cycles
system.cpu1.not_idle_fraction                       0                       # Percentage of non-idle cycles
system.cpu1.idle_fraction                           1                       # Percentage of idle cycles
system.cpu1.op_class::No_OpClass                    0                       # Class of executed instruction
system.cpu1.op_class::IntAlu                        0                       # Class of executed instruction
system.cpu1.op_class::IntMult                       0                       # Class of executed instruction
system.cpu1.op_class::IntDiv                        0                       # Class of executed instruction
system.cpu1.op_class::FloatAdd                      0                       # Class of executed instruction
system.cpu1.op_class::FloatCmp                      0                       # Class of executed instruction
system.cpu1.op_class::FloatCvt                      0                       # Class of executed instruction
system.cpu1.op_class::FloatMult                     0                       # Class of executed instruction
system.cpu1.op_class::FloatDiv                      0                       # Class of executed instruction
system.cpu1.op_class::FloatSqrt                     0                       # Class of executed instruction
system.cpu1.op_class::SimdAdd                       0                       # Class of executed instruction
system.cpu1.op_class::SimdAddAcc                    0                       # Class of executed instruction
system.cpu1.op_class::SimdAlu                       0                       # Class of executed instruction
system.cpu1.op_class::SimdCmp                       0                       # Class of executed instruction
system.cpu1.op_class::SimdCvt                       0                       # Class of executed instruction
system.cpu1.op_class::SimdMisc                      0                       # Class of executed instruction
system.cpu1.op_class::SimdMult                      0                       # Class of executed instruction
system.cpu1.op_class::SimdMultAcc                   0                       # Class of executed instruction
system.cpu1.op_class::SimdShift                     0                       # Class of executed instruction
system.cpu1.op_class::SimdShiftAcc                  0                       # Class of executed instruction
system.cpu1.op_class::SimdSqrt                      0                       # Class of executed instruction
system.cpu1.op_class::SimdFloatAdd                  0                       # Class of executed instruction
system.cpu1.op_class::SimdFloatAlu                  0                       # Class of executed instruction
system.cpu1.op_class::SimdFloatCmp                  0                       # Class of executed instruction
system.cpu1.op_class::SimdFloatCvt                  0                       # Class of executed instruction
system.cpu1.op_class::SimdFloatDiv                  0                       # Class of executed instruction
system.cpu1.op_class::SimdFloatMisc                 0                       # Class of executed instruction
system.cpu1.op_class::SimdFloatMult                 0                       # Class of executed instruction
system.cpu1.op_class::SimdFloatMultAcc              0                       # Class of executed instruction
system.cpu1.op_class::SimdFloatSqrt                 0                       # Class of executed instruction
system.cpu1.op_class::MemRead                       0                       # Class of executed instruction
system.cpu1.op_class::MemWrite                      0                       # Class of executed instruction
system.cpu1.op_class::IprAccess                     0                       # Class of executed instruction
system.cpu1.op_class::InstPrefetch                  0                       # Class of executed instruction
system.cpu1.op_class::total                         0                       # Class of executed instruction
system.cpu1.kern.inst.arm                           0                       # number of arm instructions executed
system.cpu1.kern.inst.quiesce                       0                       # number of quiesce instructions executed

---------- End Simulation Statistics   ----------
