
---------- Begin Simulation Statistics ----------
sim_seconds                                  3.094072                       # Number of seconds simulated
sim_ticks                                3094072270000                       # Number of ticks simulated
final_tick                               3094072270000                       # Number of ticks from beginning of simulation (restored from checkpoints and never reset)
sim_freq                                 1000000000000                       # Frequency of simulated ticks
host_inst_rate                                3429075                       # Simulator instruction rate (inst/s)
host_op_rate                                  3429074                       # Simulator op (including micro ops) rate (op/s)
host_tick_rate                            75302360218                       # Simulator tick rate (ticks/s)
host_mem_usage                                 473584                       # Number of bytes of host memory used
host_seconds                                    41.09                       # Real time elapsed on the host
sim_insts                                   140895983                       # Number of instructions simulated
sim_ops                                     140895983                       # Number of ops (including micro ops) simulated
system.voltage_domain.voltage                       1                       # Voltage in Volts
system.clk_domain.clock                          1000                       # Clock period in ticks
system.mem_ctrls.bytes_read::cpu0.inst       37520384                       # Number of bytes read from this memory
system.mem_ctrls.bytes_read::cpu0.data      156009984                       # Number of bytes read from this memory
system.mem_ctrls.bytes_read::tsunami.ide         4032                       # Number of bytes read from this memory
system.mem_ctrls.bytes_read::cpu1.inst       20297536                       # Number of bytes read from this memory
system.mem_ctrls.bytes_read::cpu1.data        8613120                       # Number of bytes read from this memory
system.mem_ctrls.bytes_read::cpu2.inst       31676160                       # Number of bytes read from this memory
system.mem_ctrls.bytes_read::cpu2.data       10850944                       # Number of bytes read from this memory
system.mem_ctrls.bytes_read::cpu3.inst        4406976                       # Number of bytes read from this memory
system.mem_ctrls.bytes_read::cpu3.data        1514176                       # Number of bytes read from this memory
system.mem_ctrls.bytes_read::cpu4.inst        2984704                       # Number of bytes read from this memory
system.mem_ctrls.bytes_read::cpu4.data        2938368                       # Number of bytes read from this memory
system.mem_ctrls.bytes_read::cpu5.inst        2193600                       # Number of bytes read from this memory
system.mem_ctrls.bytes_read::cpu5.data        1677568                       # Number of bytes read from this memory
system.mem_ctrls.bytes_read::cpu6.inst         989120                       # Number of bytes read from this memory
system.mem_ctrls.bytes_read::cpu6.data         350976                       # Number of bytes read from this memory
system.mem_ctrls.bytes_read::cpu7.inst        1226624                       # Number of bytes read from this memory
system.mem_ctrls.bytes_read::cpu7.data         976128                       # Number of bytes read from this memory
system.mem_ctrls.bytes_read::total          284230400                       # Number of bytes read from this memory
system.mem_ctrls.bytes_inst_read::cpu0.inst     37520384                       # Number of instructions bytes read from this memory
system.mem_ctrls.bytes_inst_read::cpu1.inst     20297536                       # Number of instructions bytes read from this memory
system.mem_ctrls.bytes_inst_read::cpu2.inst     31676160                       # Number of instructions bytes read from this memory
system.mem_ctrls.bytes_inst_read::cpu3.inst      4406976                       # Number of instructions bytes read from this memory
system.mem_ctrls.bytes_inst_read::cpu4.inst      2984704                       # Number of instructions bytes read from this memory
system.mem_ctrls.bytes_inst_read::cpu5.inst      2193600                       # Number of instructions bytes read from this memory
system.mem_ctrls.bytes_inst_read::cpu6.inst       989120                       # Number of instructions bytes read from this memory
system.mem_ctrls.bytes_inst_read::cpu7.inst      1226624                       # Number of instructions bytes read from this memory
system.mem_ctrls.bytes_inst_read::total     101295104                       # Number of instructions bytes read from this memory
system.mem_ctrls.bytes_written::writebacks     31050176                       # Number of bytes written to this memory
system.mem_ctrls.bytes_written::tsunami.ide      2832384                       # Number of bytes written to this memory
system.mem_ctrls.bytes_written::total        33882560                       # Number of bytes written to this memory
system.mem_ctrls.num_reads::cpu0.inst          586256                       # Number of read requests responded to by this memory
system.mem_ctrls.num_reads::cpu0.data         2437656                       # Number of read requests responded to by this memory
system.mem_ctrls.num_reads::tsunami.ide            63                       # Number of read requests responded to by this memory
system.mem_ctrls.num_reads::cpu1.inst          317149                       # Number of read requests responded to by this memory
system.mem_ctrls.num_reads::cpu1.data          134580                       # Number of read requests responded to by this memory
system.mem_ctrls.num_reads::cpu2.inst          494940                       # Number of read requests responded to by this memory
system.mem_ctrls.num_reads::cpu2.data          169546                       # Number of read requests responded to by this memory
system.mem_ctrls.num_reads::cpu3.inst           68859                       # Number of read requests responded to by this memory
system.mem_ctrls.num_reads::cpu3.data           23659                       # Number of read requests responded to by this memory
system.mem_ctrls.num_reads::cpu4.inst           46636                       # Number of read requests responded to by this memory
system.mem_ctrls.num_reads::cpu4.data           45912                       # Number of read requests responded to by this memory
system.mem_ctrls.num_reads::cpu5.inst           34275                       # Number of read requests responded to by this memory
system.mem_ctrls.num_reads::cpu5.data           26212                       # Number of read requests responded to by this memory
system.mem_ctrls.num_reads::cpu6.inst           15455                       # Number of read requests responded to by this memory
system.mem_ctrls.num_reads::cpu6.data            5484                       # Number of read requests responded to by this memory
system.mem_ctrls.num_reads::cpu7.inst           19166                       # Number of read requests responded to by this memory
system.mem_ctrls.num_reads::cpu7.data           15252                       # Number of read requests responded to by this memory
system.mem_ctrls.num_reads::total             4441100                       # Number of read requests responded to by this memory
system.mem_ctrls.num_writes::writebacks        485159                       # Number of write requests responded to by this memory
system.mem_ctrls.num_writes::tsunami.ide        44256                       # Number of write requests responded to by this memory
system.mem_ctrls.num_writes::total             529415                       # Number of write requests responded to by this memory
system.mem_ctrls.bw_read::cpu0.inst          12126538                       # Total read bandwidth from this memory (bytes/s)
system.mem_ctrls.bw_read::cpu0.data          50422217                       # Total read bandwidth from this memory (bytes/s)
system.mem_ctrls.bw_read::tsunami.ide            1303                       # Total read bandwidth from this memory (bytes/s)
system.mem_ctrls.bw_read::cpu1.inst           6560136                       # Total read bandwidth from this memory (bytes/s)
system.mem_ctrls.bw_read::cpu1.data           2783749                       # Total read bandwidth from this memory (bytes/s)
system.mem_ctrls.bw_read::cpu2.inst          10237692                       # Total read bandwidth from this memory (bytes/s)
system.mem_ctrls.bw_read::cpu2.data           3507011                       # Total read bandwidth from this memory (bytes/s)
system.mem_ctrls.bw_read::cpu3.inst           1424329                       # Total read bandwidth from this memory (bytes/s)
system.mem_ctrls.bw_read::cpu3.data            489380                       # Total read bandwidth from this memory (bytes/s)
system.mem_ctrls.bw_read::cpu4.inst            964652                       # Total read bandwidth from this memory (bytes/s)
system.mem_ctrls.bw_read::cpu4.data            949677                       # Total read bandwidth from this memory (bytes/s)
system.mem_ctrls.bw_read::cpu5.inst            708969                       # Total read bandwidth from this memory (bytes/s)
system.mem_ctrls.bw_read::cpu5.data            542188                       # Total read bandwidth from this memory (bytes/s)
system.mem_ctrls.bw_read::cpu6.inst            319682                       # Total read bandwidth from this memory (bytes/s)
system.mem_ctrls.bw_read::cpu6.data            113435                       # Total read bandwidth from this memory (bytes/s)
system.mem_ctrls.bw_read::cpu7.inst            396443                       # Total read bandwidth from this memory (bytes/s)
system.mem_ctrls.bw_read::cpu7.data            315483                       # Total read bandwidth from this memory (bytes/s)
system.mem_ctrls.bw_read::total              91862883                       # Total read bandwidth from this memory (bytes/s)
system.mem_ctrls.bw_inst_read::cpu0.inst     12126538                       # Instruction read bandwidth from this memory (bytes/s)
system.mem_ctrls.bw_inst_read::cpu1.inst      6560136                       # Instruction read bandwidth from this memory (bytes/s)
system.mem_ctrls.bw_inst_read::cpu2.inst     10237692                       # Instruction read bandwidth from this memory (bytes/s)
system.mem_ctrls.bw_inst_read::cpu3.inst      1424329                       # Instruction read bandwidth from this memory (bytes/s)
system.mem_ctrls.bw_inst_read::cpu4.inst       964652                       # Instruction read bandwidth from this memory (bytes/s)
system.mem_ctrls.bw_inst_read::cpu5.inst       708969                       # Instruction read bandwidth from this memory (bytes/s)
system.mem_ctrls.bw_inst_read::cpu6.inst       319682                       # Instruction read bandwidth from this memory (bytes/s)
system.mem_ctrls.bw_inst_read::cpu7.inst       396443                       # Instruction read bandwidth from this memory (bytes/s)
system.mem_ctrls.bw_inst_read::total         32738441                       # Instruction read bandwidth from this memory (bytes/s)
system.mem_ctrls.bw_write::writebacks        10035375                       # Write bandwidth from this memory (bytes/s)
system.mem_ctrls.bw_write::tsunami.ide         915423                       # Write bandwidth from this memory (bytes/s)
system.mem_ctrls.bw_write::total             10950798                       # Write bandwidth from this memory (bytes/s)
system.mem_ctrls.bw_total::writebacks        10035375                       # Total bandwidth to/from this memory (bytes/s)
system.mem_ctrls.bw_total::cpu0.inst         12126538                       # Total bandwidth to/from this memory (bytes/s)
system.mem_ctrls.bw_total::cpu0.data         50422217                       # Total bandwidth to/from this memory (bytes/s)
system.mem_ctrls.bw_total::tsunami.ide         916726                       # Total bandwidth to/from this memory (bytes/s)
system.mem_ctrls.bw_total::cpu1.inst          6560136                       # Total bandwidth to/from this memory (bytes/s)
system.mem_ctrls.bw_total::cpu1.data          2783749                       # Total bandwidth to/from this memory (bytes/s)
system.mem_ctrls.bw_total::cpu2.inst         10237692                       # Total bandwidth to/from this memory (bytes/s)
system.mem_ctrls.bw_total::cpu2.data          3507011                       # Total bandwidth to/from this memory (bytes/s)
system.mem_ctrls.bw_total::cpu3.inst          1424329                       # Total bandwidth to/from this memory (bytes/s)
system.mem_ctrls.bw_total::cpu3.data           489380                       # Total bandwidth to/from this memory (bytes/s)
system.mem_ctrls.bw_total::cpu4.inst           964652                       # Total bandwidth to/from this memory (bytes/s)
system.mem_ctrls.bw_total::cpu4.data           949677                       # Total bandwidth to/from this memory (bytes/s)
system.mem_ctrls.bw_total::cpu5.inst           708969                       # Total bandwidth to/from this memory (bytes/s)
system.mem_ctrls.bw_total::cpu5.data           542188                       # Total bandwidth to/from this memory (bytes/s)
system.mem_ctrls.bw_total::cpu6.inst           319682                       # Total bandwidth to/from this memory (bytes/s)
system.mem_ctrls.bw_total::cpu6.data           113435                       # Total bandwidth to/from this memory (bytes/s)
system.mem_ctrls.bw_total::cpu7.inst           396443                       # Total bandwidth to/from this memory (bytes/s)
system.mem_ctrls.bw_total::cpu7.data           315483                       # Total bandwidth to/from this memory (bytes/s)
system.mem_ctrls.bw_total::total            102813681                       # Total bandwidth to/from this memory (bytes/s)
system.mem_ctrls.readReqs                           0                       # Number of read requests accepted
system.mem_ctrls.writeReqs                          0                       # Number of write requests accepted
system.mem_ctrls.readBursts                         0                       # Number of DRAM read bursts, including those serviced by the write queue
system.mem_ctrls.writeBursts                        0                       # Number of DRAM write bursts, including those merged in the write queue
system.mem_ctrls.bytesReadDRAM                      0                       # Total number of bytes read from DRAM
system.mem_ctrls.bytesReadWrQ                       0                       # Total number of bytes read from write queue
system.mem_ctrls.bytesWritten                       0                       # Total number of bytes written to DRAM
system.mem_ctrls.bytesReadSys                       0                       # Total read bytes from the system interface side
system.mem_ctrls.bytesWrittenSys                    0                       # Total written bytes from the system interface side
system.mem_ctrls.servicedByWrQ                      0                       # Number of DRAM read bursts serviced by the write queue
system.mem_ctrls.mergedWrBursts                     0                       # Number of DRAM write bursts merged with an existing one
system.mem_ctrls.neitherReadNorWriteReqs            0                       # Number of requests that are neither read nor write
system.mem_ctrls.perBankRdBursts::0                 0                       # Per bank write bursts
system.mem_ctrls.perBankRdBursts::1                 0                       # Per bank write bursts
system.mem_ctrls.perBankRdBursts::2                 0                       # Per bank write bursts
system.mem_ctrls.perBankRdBursts::3                 0                       # Per bank write bursts
system.mem_ctrls.perBankRdBursts::4                 0                       # Per bank write bursts
system.mem_ctrls.perBankRdBursts::5                 0                       # Per bank write bursts
system.mem_ctrls.perBankRdBursts::6                 0                       # Per bank write bursts
system.mem_ctrls.perBankRdBursts::7                 0                       # Per bank write bursts
system.mem_ctrls.perBankRdBursts::8                 0                       # Per bank write bursts
system.mem_ctrls.perBankRdBursts::9                 0                       # Per bank write bursts
system.mem_ctrls.perBankRdBursts::10                0                       # Per bank write bursts
system.mem_ctrls.perBankRdBursts::11                0                       # Per bank write bursts
system.mem_ctrls.perBankRdBursts::12                0                       # Per bank write bursts
system.mem_ctrls.perBankRdBursts::13                0                       # Per bank write bursts
system.mem_ctrls.perBankRdBursts::14                0                       # Per bank write bursts
system.mem_ctrls.perBankRdBursts::15                0                       # Per bank write bursts
system.mem_ctrls.perBankWrBursts::0                 0                       # Per bank write bursts
system.mem_ctrls.perBankWrBursts::1                 0                       # Per bank write bursts
system.mem_ctrls.perBankWrBursts::2                 0                       # Per bank write bursts
system.mem_ctrls.perBankWrBursts::3                 0                       # Per bank write bursts
system.mem_ctrls.perBankWrBursts::4                 0                       # Per bank write bursts
system.mem_ctrls.perBankWrBursts::5                 0                       # Per bank write bursts
system.mem_ctrls.perBankWrBursts::6                 0                       # Per bank write bursts
system.mem_ctrls.perBankWrBursts::7                 0                       # Per bank write bursts
system.mem_ctrls.perBankWrBursts::8                 0                       # Per bank write bursts
system.mem_ctrls.perBankWrBursts::9                 0                       # Per bank write bursts
system.mem_ctrls.perBankWrBursts::10                0                       # Per bank write bursts
system.mem_ctrls.perBankWrBursts::11                0                       # Per bank write bursts
system.mem_ctrls.perBankWrBursts::12                0                       # Per bank write bursts
system.mem_ctrls.perBankWrBursts::13                0                       # Per bank write bursts
system.mem_ctrls.perBankWrBursts::14                0                       # Per bank write bursts
system.mem_ctrls.perBankWrBursts::15                0                       # Per bank write bursts
system.mem_ctrls.numRdRetry                         0                       # Number of times read queue was full causing retry
system.mem_ctrls.numWrRetry                         0                       # Number of times write queue was full causing retry
system.mem_ctrls.totGap                             0                       # Total gap between requests
system.mem_ctrls.readPktSize::0                     0                       # Read request sizes (log2)
system.mem_ctrls.readPktSize::1                     0                       # Read request sizes (log2)
system.mem_ctrls.readPktSize::2                     0                       # Read request sizes (log2)
system.mem_ctrls.readPktSize::3                     0                       # Read request sizes (log2)
system.mem_ctrls.readPktSize::4                     0                       # Read request sizes (log2)
system.mem_ctrls.readPktSize::5                     0                       # Read request sizes (log2)
system.mem_ctrls.readPktSize::6                     0                       # Read request sizes (log2)
system.mem_ctrls.writePktSize::0                    0                       # Write request sizes (log2)
system.mem_ctrls.writePktSize::1                    0                       # Write request sizes (log2)
system.mem_ctrls.writePktSize::2                    0                       # Write request sizes (log2)
system.mem_ctrls.writePktSize::3                    0                       # Write request sizes (log2)
system.mem_ctrls.writePktSize::4                    0                       # Write request sizes (log2)
system.mem_ctrls.writePktSize::5                    0                       # Write request sizes (log2)
system.mem_ctrls.writePktSize::6                    0                       # Write request sizes (log2)
system.mem_ctrls.rdQLenPdf::0                       0                       # What read queue length does an incoming req see
system.mem_ctrls.rdQLenPdf::1                       0                       # What read queue length does an incoming req see
system.mem_ctrls.rdQLenPdf::2                       0                       # What read queue length does an incoming req see
system.mem_ctrls.rdQLenPdf::3                       0                       # What read queue length does an incoming req see
system.mem_ctrls.rdQLenPdf::4                       0                       # What read queue length does an incoming req see
system.mem_ctrls.rdQLenPdf::5                       0                       # What read queue length does an incoming req see
system.mem_ctrls.rdQLenPdf::6                       0                       # What read queue length does an incoming req see
system.mem_ctrls.rdQLenPdf::7                       0                       # What read queue length does an incoming req see
system.mem_ctrls.rdQLenPdf::8                       0                       # What read queue length does an incoming req see
system.mem_ctrls.rdQLenPdf::9                       0                       # What read queue length does an incoming req see
system.mem_ctrls.rdQLenPdf::10                      0                       # What read queue length does an incoming req see
system.mem_ctrls.rdQLenPdf::11                      0                       # What read queue length does an incoming req see
system.mem_ctrls.rdQLenPdf::12                      0                       # What read queue length does an incoming req see
system.mem_ctrls.rdQLenPdf::13                      0                       # What read queue length does an incoming req see
system.mem_ctrls.rdQLenPdf::14                      0                       # What read queue length does an incoming req see
system.mem_ctrls.rdQLenPdf::15                      0                       # What read queue length does an incoming req see
system.mem_ctrls.rdQLenPdf::16                      0                       # What read queue length does an incoming req see
system.mem_ctrls.rdQLenPdf::17                      0                       # What read queue length does an incoming req see
system.mem_ctrls.rdQLenPdf::18                      0                       # What read queue length does an incoming req see
system.mem_ctrls.rdQLenPdf::19                      0                       # What read queue length does an incoming req see
system.mem_ctrls.rdQLenPdf::20                      0                       # What read queue length does an incoming req see
system.mem_ctrls.rdQLenPdf::21                      0                       # What read queue length does an incoming req see
system.mem_ctrls.rdQLenPdf::22                      0                       # What read queue length does an incoming req see
system.mem_ctrls.rdQLenPdf::23                      0                       # What read queue length does an incoming req see
system.mem_ctrls.rdQLenPdf::24                      0                       # What read queue length does an incoming req see
system.mem_ctrls.rdQLenPdf::25                      0                       # What read queue length does an incoming req see
system.mem_ctrls.rdQLenPdf::26                      0                       # What read queue length does an incoming req see
system.mem_ctrls.rdQLenPdf::27                      0                       # What read queue length does an incoming req see
system.mem_ctrls.rdQLenPdf::28                      0                       # What read queue length does an incoming req see
system.mem_ctrls.rdQLenPdf::29                      0                       # What read queue length does an incoming req see
system.mem_ctrls.rdQLenPdf::30                      0                       # What read queue length does an incoming req see
system.mem_ctrls.rdQLenPdf::31                      0                       # What read queue length does an incoming req see
system.mem_ctrls.wrQLenPdf::0                       0                       # What write queue length does an incoming req see
system.mem_ctrls.wrQLenPdf::1                       0                       # What write queue length does an incoming req see
system.mem_ctrls.wrQLenPdf::2                       0                       # What write queue length does an incoming req see
system.mem_ctrls.wrQLenPdf::3                       0                       # What write queue length does an incoming req see
system.mem_ctrls.wrQLenPdf::4                       0                       # What write queue length does an incoming req see
system.mem_ctrls.wrQLenPdf::5                       0                       # What write queue length does an incoming req see
system.mem_ctrls.wrQLenPdf::6                       0                       # What write queue length does an incoming req see
system.mem_ctrls.wrQLenPdf::7                       0                       # What write queue length does an incoming req see
system.mem_ctrls.wrQLenPdf::8                       0                       # What write queue length does an incoming req see
system.mem_ctrls.wrQLenPdf::9                       0                       # What write queue length does an incoming req see
system.mem_ctrls.wrQLenPdf::10                      0                       # What write queue length does an incoming req see
system.mem_ctrls.wrQLenPdf::11                      0                       # What write queue length does an incoming req see
system.mem_ctrls.wrQLenPdf::12                      0                       # What write queue length does an incoming req see
system.mem_ctrls.wrQLenPdf::13                      0                       # What write queue length does an incoming req see
system.mem_ctrls.wrQLenPdf::14                      0                       # What write queue length does an incoming req see
system.mem_ctrls.wrQLenPdf::15                      0                       # What write queue length does an incoming req see
system.mem_ctrls.wrQLenPdf::16                      0                       # What write queue length does an incoming req see
system.mem_ctrls.wrQLenPdf::17                      0                       # What write queue length does an incoming req see
system.mem_ctrls.wrQLenPdf::18                      0                       # What write queue length does an incoming req see
system.mem_ctrls.wrQLenPdf::19                      0                       # What write queue length does an incoming req see
system.mem_ctrls.wrQLenPdf::20                      0                       # What write queue length does an incoming req see
system.mem_ctrls.wrQLenPdf::21                      0                       # What write queue length does an incoming req see
system.mem_ctrls.wrQLenPdf::22                      0                       # What write queue length does an incoming req see
system.mem_ctrls.wrQLenPdf::23                      0                       # What write queue length does an incoming req see
system.mem_ctrls.wrQLenPdf::24                      0                       # What write queue length does an incoming req see
system.mem_ctrls.wrQLenPdf::25                      0                       # What write queue length does an incoming req see
system.mem_ctrls.wrQLenPdf::26                      0                       # What write queue length does an incoming req see
system.mem_ctrls.wrQLenPdf::27                      0                       # What write queue length does an incoming req see
system.mem_ctrls.wrQLenPdf::28                      0                       # What write queue length does an incoming req see
system.mem_ctrls.wrQLenPdf::29                      0                       # What write queue length does an incoming req see
system.mem_ctrls.wrQLenPdf::30                      0                       # What write queue length does an incoming req see
system.mem_ctrls.wrQLenPdf::31                      0                       # What write queue length does an incoming req see
system.mem_ctrls.wrQLenPdf::32                      0                       # What write queue length does an incoming req see
system.mem_ctrls.wrQLenPdf::33                      0                       # What write queue length does an incoming req see
system.mem_ctrls.wrQLenPdf::34                      0                       # What write queue length does an incoming req see
system.mem_ctrls.wrQLenPdf::35                      0                       # What write queue length does an incoming req see
system.mem_ctrls.wrQLenPdf::36                      0                       # What write queue length does an incoming req see
system.mem_ctrls.wrQLenPdf::37                      0                       # What write queue length does an incoming req see
system.mem_ctrls.wrQLenPdf::38                      0                       # What write queue length does an incoming req see
system.mem_ctrls.wrQLenPdf::39                      0                       # What write queue length does an incoming req see
system.mem_ctrls.wrQLenPdf::40                      0                       # What write queue length does an incoming req see
system.mem_ctrls.wrQLenPdf::41                      0                       # What write queue length does an incoming req see
system.mem_ctrls.wrQLenPdf::42                      0                       # What write queue length does an incoming req see
system.mem_ctrls.wrQLenPdf::43                      0                       # What write queue length does an incoming req see
system.mem_ctrls.wrQLenPdf::44                      0                       # What write queue length does an incoming req see
system.mem_ctrls.wrQLenPdf::45                      0                       # What write queue length does an incoming req see
system.mem_ctrls.wrQLenPdf::46                      0                       # What write queue length does an incoming req see
system.mem_ctrls.wrQLenPdf::47                      0                       # What write queue length does an incoming req see
system.mem_ctrls.wrQLenPdf::48                      0                       # What write queue length does an incoming req see
system.mem_ctrls.wrQLenPdf::49                      0                       # What write queue length does an incoming req see
system.mem_ctrls.wrQLenPdf::50                      0                       # What write queue length does an incoming req see
system.mem_ctrls.wrQLenPdf::51                      0                       # What write queue length does an incoming req see
system.mem_ctrls.wrQLenPdf::52                      0                       # What write queue length does an incoming req see
system.mem_ctrls.wrQLenPdf::53                      0                       # What write queue length does an incoming req see
system.mem_ctrls.wrQLenPdf::54                      0                       # What write queue length does an incoming req see
system.mem_ctrls.wrQLenPdf::55                      0                       # What write queue length does an incoming req see
system.mem_ctrls.wrQLenPdf::56                      0                       # What write queue length does an incoming req see
system.mem_ctrls.wrQLenPdf::57                      0                       # What write queue length does an incoming req see
system.mem_ctrls.wrQLenPdf::58                      0                       # What write queue length does an incoming req see
system.mem_ctrls.wrQLenPdf::59                      0                       # What write queue length does an incoming req see
system.mem_ctrls.wrQLenPdf::60                      0                       # What write queue length does an incoming req see
system.mem_ctrls.wrQLenPdf::61                      0                       # What write queue length does an incoming req see
system.mem_ctrls.wrQLenPdf::62                      0                       # What write queue length does an incoming req see
system.mem_ctrls.wrQLenPdf::63                      0                       # What write queue length does an incoming req see
system.mem_ctrls.totQLat                            0                       # Total ticks spent queuing
system.mem_ctrls.totMemAccLat                       0                       # Total ticks spent from burst creation until serviced by the DRAM
system.mem_ctrls.totBusLat                          0                       # Total ticks spent in databus transfers
system.mem_ctrls.avgQLat                          nan                       # Average queueing delay per DRAM burst
system.mem_ctrls.avgBusLat                        nan                       # Average bus latency per DRAM burst
system.mem_ctrls.avgMemAccLat                     nan                       # Average memory access latency per DRAM burst
system.mem_ctrls.avgRdBW                         0.00                       # Average DRAM read bandwidth in MiByte/s
system.mem_ctrls.avgWrBW                         0.00                       # Average achieved write bandwidth in MiByte/s
system.mem_ctrls.avgRdBWSys                      0.00                       # Average system read bandwidth in MiByte/s
system.mem_ctrls.avgWrBWSys                      0.00                       # Average system write bandwidth in MiByte/s
system.mem_ctrls.peakBW                      12800.00                       # Theoretical peak bandwidth in MiByte/s
system.mem_ctrls.busUtil                         0.00                       # Data bus utilization in percentage
system.mem_ctrls.busUtilRead                     0.00                       # Data bus utilization in percentage for reads
system.mem_ctrls.busUtilWrite                    0.00                       # Data bus utilization in percentage for writes
system.mem_ctrls.avgRdQLen                       0.00                       # Average read queue length when enqueuing
system.mem_ctrls.avgWrQLen                       0.00                       # Average write queue length when enqueuing
system.mem_ctrls.readRowHits                        0                       # Number of row buffer hits during reads
system.mem_ctrls.writeRowHits                       0                       # Number of row buffer hits during writes
system.mem_ctrls.readRowHitRate                   nan                       # Row buffer hit rate for reads
system.mem_ctrls.writeRowHitRate                  nan                       # Row buffer hit rate for writes
system.mem_ctrls.avgGap                           nan                       # Average gap between requests
system.mem_ctrls.pageHitRate                      nan                       # Row buffer hit rate, read and write combined
system.mem_ctrls.memoryStateTime::IDLE   2990751380000                       # Time in different power states
system.mem_ctrls.memoryStateTime::REF    103317760000                       # Time in different power states
system.mem_ctrls.memoryStateTime::PRE_PDN            0                       # Time in different power states
system.mem_ctrls.memoryStateTime::ACT               0                       # Time in different power states
system.mem_ctrls.memoryStateTime::ACT_PDN            0                       # Time in different power states
system.mem_ctrls.actEnergy::0                       0                       # Energy for activate commands per rank (pJ)
system.mem_ctrls.actEnergy::1                       0                       # Energy for activate commands per rank (pJ)
system.mem_ctrls.preEnergy::0                       0                       # Energy for precharge commands per rank (pJ)
system.mem_ctrls.preEnergy::1                       0                       # Energy for precharge commands per rank (pJ)
system.mem_ctrls.readEnergy::0                      0                       # Energy for read commands per rank (pJ)
system.mem_ctrls.readEnergy::1                      0                       # Energy for read commands per rank (pJ)
system.mem_ctrls.writeEnergy::0                     0                       # Energy for write commands per rank (pJ)
system.mem_ctrls.writeEnergy::1                     0                       # Energy for write commands per rank (pJ)
system.mem_ctrls.refreshEnergy::0        202089538560                       # Energy for refresh commands per rank (pJ)
system.mem_ctrls.refreshEnergy::1        202089538560                       # Energy for refresh commands per rank (pJ)
system.mem_ctrls.actBackEnergy::0         66932026560                       # Energy for active background per rank (pJ)
system.mem_ctrls.actBackEnergy::1         66932026560                       # Energy for active background per rank (pJ)
system.mem_ctrls.preBackEnergy::0        1797729171750                       # Energy for precharge background per rank (pJ)
system.mem_ctrls.preBackEnergy::1        1797729171750                       # Energy for precharge background per rank (pJ)
system.mem_ctrls.totalEnergy::0          2066750736870                       # Total energy per rank (pJ)
system.mem_ctrls.totalEnergy::1          2066750736870                       # Total energy per rank (pJ)
system.mem_ctrls.averagePower::0           667.971740                       # Core power per rank (mW)
system.mem_ctrls.averagePower::1           667.971740                       # Core power per rank (mW)
system.membus.trans_dist::ReadReq             4423304                       # Transaction distribution
system.membus.trans_dist::ReadResp            4423304                       # Transaction distribution
system.membus.trans_dist::WriteReq              41178                       # Transaction distribution
system.membus.trans_dist::WriteResp             41178                       # Transaction distribution
system.membus.trans_dist::Writeback            485159                       # Transaction distribution
system.membus.trans_dist::WriteInvalidateReq        44256                       # Transaction distribution
system.membus.trans_dist::WriteInvalidateResp        44256                       # Transaction distribution
system.membus.trans_dist::UpgradeReq           103459                       # Transaction distribution
system.membus.trans_dist::SCUpgradeReq          65221                       # Transaction distribution
system.membus.trans_dist::UpgradeResp          168680                       # Transaction distribution
system.membus.trans_dist::ReadExReq            387106                       # Transaction distribution
system.membus.trans_dist::ReadExResp           387106                       # Transaction distribution
system.membus.pkt_count_system.iocache.mem_side::system.mem_ctrls.port        88930                       # Packet count per connected master and slave (bytes)
system.membus.pkt_count_system.iocache.mem_side::total        88930                       # Packet count per connected master and slave (bytes)
system.membus.pkt_count_system.cpu0.icache.mem_side::system.mem_ctrls.port      1172516                       # Packet count per connected master and slave (bytes)
system.membus.pkt_count_system.cpu0.icache.mem_side::total      1172516                       # Packet count per connected master and slave (bytes)
system.membus.pkt_count_system.cpu0.dcache.mem_side::system.bridge.slave        32812                       # Packet count per connected master and slave (bytes)
system.membus.pkt_count_system.cpu0.dcache.mem_side::system.mem_ctrls.port      5325141                       # Packet count per connected master and slave (bytes)
system.membus.pkt_count_system.cpu0.dcache.mem_side::total      5357953                       # Packet count per connected master and slave (bytes)
system.membus.pkt_count_system.cpu1.icache.mem_side::system.mem_ctrls.port       634298                       # Packet count per connected master and slave (bytes)
system.membus.pkt_count_system.cpu1.icache.mem_side::total       634298                       # Packet count per connected master and slave (bytes)
system.membus.pkt_count_system.cpu1.dcache.mem_side::system.bridge.slave        12634                       # Packet count per connected master and slave (bytes)
system.membus.pkt_count_system.cpu1.dcache.mem_side::system.mem_ctrls.port       633149                       # Packet count per connected master and slave (bytes)
system.membus.pkt_count_system.cpu1.dcache.mem_side::total       645783                       # Packet count per connected master and slave (bytes)
system.membus.pkt_count_system.cpu2.icache.mem_side::system.mem_ctrls.port       989958                       # Packet count per connected master and slave (bytes)
system.membus.pkt_count_system.cpu2.icache.mem_side::total       989958                       # Packet count per connected master and slave (bytes)
system.membus.pkt_count_system.cpu2.dcache.mem_side::system.bridge.slave        17876                       # Packet count per connected master and slave (bytes)
system.membus.pkt_count_system.cpu2.dcache.mem_side::system.mem_ctrls.port       774658                       # Packet count per connected master and slave (bytes)
system.membus.pkt_count_system.cpu2.dcache.mem_side::total       792534                       # Packet count per connected master and slave (bytes)
system.membus.pkt_count_system.cpu3.icache.mem_side::system.mem_ctrls.port       137726                       # Packet count per connected master and slave (bytes)
system.membus.pkt_count_system.cpu3.icache.mem_side::total       137726                       # Packet count per connected master and slave (bytes)
system.membus.pkt_count_system.cpu3.dcache.mem_side::system.bridge.slave         7120                       # Packet count per connected master and slave (bytes)
system.membus.pkt_count_system.cpu3.dcache.mem_side::system.mem_ctrls.port       140937                       # Packet count per connected master and slave (bytes)
system.membus.pkt_count_system.cpu3.dcache.mem_side::total       148057                       # Packet count per connected master and slave (bytes)
system.membus.pkt_count_system.cpu4.icache.mem_side::system.mem_ctrls.port        93278                       # Packet count per connected master and slave (bytes)
system.membus.pkt_count_system.cpu4.icache.mem_side::total        93278                       # Packet count per connected master and slave (bytes)
system.membus.pkt_count_system.cpu4.dcache.mem_side::system.bridge.slave         6792                       # Packet count per connected master and slave (bytes)
system.membus.pkt_count_system.cpu4.dcache.mem_side::system.mem_ctrls.port       154091                       # Packet count per connected master and slave (bytes)
system.membus.pkt_count_system.cpu4.dcache.mem_side::total       160883                       # Packet count per connected master and slave (bytes)
system.membus.pkt_count_system.cpu5.icache.mem_side::system.mem_ctrls.port        68576                       # Packet count per connected master and slave (bytes)
system.membus.pkt_count_system.cpu5.icache.mem_side::total        68576                       # Packet count per connected master and slave (bytes)
system.membus.pkt_count_system.cpu5.dcache.mem_side::system.bridge.slave         6628                       # Packet count per connected master and slave (bytes)
system.membus.pkt_count_system.cpu5.dcache.mem_side::system.mem_ctrls.port       103451                       # Packet count per connected master and slave (bytes)
system.membus.pkt_count_system.cpu5.dcache.mem_side::total       110079                       # Packet count per connected master and slave (bytes)
system.membus.pkt_count_system.cpu6.icache.mem_side::system.mem_ctrls.port        30910                       # Packet count per connected master and slave (bytes)
system.membus.pkt_count_system.cpu6.icache.mem_side::total        30910                       # Packet count per connected master and slave (bytes)
system.membus.pkt_count_system.cpu6.dcache.mem_side::system.bridge.slave         6608                       # Packet count per connected master and slave (bytes)
system.membus.pkt_count_system.cpu6.dcache.mem_side::system.mem_ctrls.port        52271                       # Packet count per connected master and slave (bytes)
system.membus.pkt_count_system.cpu6.dcache.mem_side::total        58879                       # Packet count per connected master and slave (bytes)
system.membus.pkt_count_system.cpu7.icache.mem_side::system.mem_ctrls.port        38334                       # Packet count per connected master and slave (bytes)
system.membus.pkt_count_system.cpu7.icache.mem_side::total        38334                       # Packet count per connected master and slave (bytes)
system.membus.pkt_count_system.cpu7.dcache.mem_side::system.bridge.slave         6616                       # Packet count per connected master and slave (bytes)
system.membus.pkt_count_system.cpu7.dcache.mem_side::system.mem_ctrls.port        78897                       # Packet count per connected master and slave (bytes)
system.membus.pkt_count_system.cpu7.dcache.mem_side::total        85513                       # Packet count per connected master and slave (bytes)
system.membus.pkt_count::total               10614207                       # Packet count per connected master and slave (bytes)
system.membus.pkt_size_system.iocache.mem_side::system.mem_ctrls.port      2845760                       # Cumulative packet size per connected master and slave (bytes)
system.membus.pkt_size_system.iocache.mem_side::total      2845760                       # Cumulative packet size per connected master and slave (bytes)
system.membus.pkt_size_system.cpu0.icache.mem_side::system.mem_ctrls.port     37520512                       # Cumulative packet size per connected master and slave (bytes)
system.membus.pkt_size_system.cpu0.icache.mem_side::total     37520512                       # Cumulative packet size per connected master and slave (bytes)
system.membus.pkt_size_system.cpu0.dcache.mem_side::system.bridge.slave        64078                       # Cumulative packet size per connected master and slave (bytes)
system.membus.pkt_size_system.cpu0.dcache.mem_side::system.mem_ctrls.port    177142656                       # Cumulative packet size per connected master and slave (bytes)
system.membus.pkt_size_system.cpu0.dcache.mem_side::total    177206734                       # Cumulative packet size per connected master and slave (bytes)
system.membus.pkt_size_system.cpu1.icache.mem_side::system.mem_ctrls.port     20297536                       # Cumulative packet size per connected master and slave (bytes)
system.membus.pkt_size_system.cpu1.icache.mem_side::total     20297536                       # Cumulative packet size per connected master and slave (bytes)
system.membus.pkt_size_system.cpu1.dcache.mem_side::system.bridge.slave        50536                       # Cumulative packet size per connected master and slave (bytes)
system.membus.pkt_size_system.cpu1.dcache.mem_side::system.mem_ctrls.port     18261312                       # Cumulative packet size per connected master and slave (bytes)
system.membus.pkt_size_system.cpu1.dcache.mem_side::total     18311848                       # Cumulative packet size per connected master and slave (bytes)
system.membus.pkt_size_system.cpu2.icache.mem_side::system.mem_ctrls.port     31678656                       # Cumulative packet size per connected master and slave (bytes)
system.membus.pkt_size_system.cpu2.icache.mem_side::total     31678656                       # Cumulative packet size per connected master and slave (bytes)
system.membus.pkt_size_system.cpu2.dcache.mem_side::system.bridge.slave        45596                       # Cumulative packet size per connected master and slave (bytes)
system.membus.pkt_size_system.cpu2.dcache.mem_side::system.mem_ctrls.port     25267584                       # Cumulative packet size per connected master and slave (bytes)
system.membus.pkt_size_system.cpu2.dcache.mem_side::total     25313180                       # Cumulative packet size per connected master and slave (bytes)
system.membus.pkt_size_system.cpu3.icache.mem_side::system.mem_ctrls.port      4407232                       # Cumulative packet size per connected master and slave (bytes)
system.membus.pkt_size_system.cpu3.icache.mem_side::total      4407232                       # Cumulative packet size per connected master and slave (bytes)
system.membus.pkt_size_system.cpu3.dcache.mem_side::system.bridge.slave        27908                       # Cumulative packet size per connected master and slave (bytes)
system.membus.pkt_size_system.cpu3.dcache.mem_side::system.mem_ctrls.port      4235264                       # Cumulative packet size per connected master and slave (bytes)
system.membus.pkt_size_system.cpu3.dcache.mem_side::total      4263172                       # Cumulative packet size per connected master and slave (bytes)
system.membus.pkt_size_system.cpu4.icache.mem_side::system.mem_ctrls.port      2984896                       # Cumulative packet size per connected master and slave (bytes)
system.membus.pkt_size_system.cpu4.icache.mem_side::total      2984896                       # Cumulative packet size per connected master and slave (bytes)
system.membus.pkt_size_system.cpu4.dcache.mem_side::system.bridge.slave        26704                       # Cumulative packet size per connected master and slave (bytes)
system.membus.pkt_size_system.cpu4.dcache.mem_side::system.mem_ctrls.port      5153216                       # Cumulative packet size per connected master and slave (bytes)
system.membus.pkt_size_system.cpu4.dcache.mem_side::total      5179920                       # Cumulative packet size per connected master and slave (bytes)
system.membus.pkt_size_system.cpu5.icache.mem_side::system.mem_ctrls.port      2194432                       # Cumulative packet size per connected master and slave (bytes)
system.membus.pkt_size_system.cpu5.icache.mem_side::total      2194432                       # Cumulative packet size per connected master and slave (bytes)
system.membus.pkt_size_system.cpu5.dcache.mem_side::system.bridge.slave        26491                       # Cumulative packet size per connected master and slave (bytes)
system.membus.pkt_size_system.cpu5.dcache.mem_side::system.mem_ctrls.port      3275328                       # Cumulative packet size per connected master and slave (bytes)
system.membus.pkt_size_system.cpu5.dcache.mem_side::total      3301819                       # Cumulative packet size per connected master and slave (bytes)
system.membus.pkt_size_system.cpu6.icache.mem_side::system.mem_ctrls.port       989120                       # Cumulative packet size per connected master and slave (bytes)
system.membus.pkt_size_system.cpu6.icache.mem_side::total       989120                       # Cumulative packet size per connected master and slave (bytes)
system.membus.pkt_size_system.cpu6.dcache.mem_side::system.bridge.slave        26432                       # Cumulative packet size per connected master and slave (bytes)
system.membus.pkt_size_system.cpu6.dcache.mem_side::system.mem_ctrls.port      1382400                       # Cumulative packet size per connected master and slave (bytes)
system.membus.pkt_size_system.cpu6.dcache.mem_side::total      1408832                       # Cumulative packet size per connected master and slave (bytes)
system.membus.pkt_size_system.cpu7.icache.mem_side::system.mem_ctrls.port      1226688                       # Cumulative packet size per connected master and slave (bytes)
system.membus.pkt_size_system.cpu7.icache.mem_side::total      1226688                       # Cumulative packet size per connected master and slave (bytes)
system.membus.pkt_size_system.cpu7.dcache.mem_side::system.bridge.slave        26464                       # Cumulative packet size per connected master and slave (bytes)
system.membus.pkt_size_system.cpu7.dcache.mem_side::system.mem_ctrls.port      2414848                       # Cumulative packet size per connected master and slave (bytes)
system.membus.pkt_size_system.cpu7.dcache.mem_side::total      2441312                       # Cumulative packet size per connected master and slave (bytes)
system.membus.pkt_size::total               341571649                       # Cumulative packet size per connected master and slave (bytes)
system.membus.snoops                                0                       # Total snoops (count)
system.membus.snoop_fanout::samples           5501140                       # Request fanout histogram
system.membus.snoop_fanout::mean                   16                       # Request fanout histogram
system.membus.snoop_fanout::stdev                   0                       # Request fanout histogram
system.membus.snoop_fanout::underflows              0      0.00%      0.00% # Request fanout histogram
system.membus.snoop_fanout::0                       0      0.00%      0.00% # Request fanout histogram
system.membus.snoop_fanout::1                       0      0.00%      0.00% # Request fanout histogram
system.membus.snoop_fanout::2                       0      0.00%      0.00% # Request fanout histogram
system.membus.snoop_fanout::3                       0      0.00%      0.00% # Request fanout histogram
system.membus.snoop_fanout::4                       0      0.00%      0.00% # Request fanout histogram
system.membus.snoop_fanout::5                       0      0.00%      0.00% # Request fanout histogram
system.membus.snoop_fanout::6                       0      0.00%      0.00% # Request fanout histogram
system.membus.snoop_fanout::7                       0      0.00%      0.00% # Request fanout histogram
system.membus.snoop_fanout::8                       0      0.00%      0.00% # Request fanout histogram
system.membus.snoop_fanout::9                       0      0.00%      0.00% # Request fanout histogram
system.membus.snoop_fanout::10                      0      0.00%      0.00% # Request fanout histogram
system.membus.snoop_fanout::11                      0      0.00%      0.00% # Request fanout histogram
system.membus.snoop_fanout::12                      0      0.00%      0.00% # Request fanout histogram
system.membus.snoop_fanout::13                      0      0.00%      0.00% # Request fanout histogram
system.membus.snoop_fanout::14                      0      0.00%      0.00% # Request fanout histogram
system.membus.snoop_fanout::15                      0      0.00%      0.00% # Request fanout histogram
system.membus.snoop_fanout::16                5501140    100.00%    100.00% # Request fanout histogram
system.membus.snoop_fanout::17                      0      0.00%    100.00% # Request fanout histogram
system.membus.snoop_fanout::overflows               0      0.00%    100.00% # Request fanout histogram
system.membus.snoop_fanout::min_value              16                       # Request fanout histogram
system.membus.snoop_fanout::max_value              16                       # Request fanout histogram
system.membus.snoop_fanout::total             5501140                       # Request fanout histogram
system.iocache.tags.replacements                44433                       # number of replacements
system.iocache.tags.tagsinuse                0.762916                       # Cycle average of tags in use
system.iocache.tags.total_refs                      0                       # Total number of references to valid blocks.
system.iocache.tags.sampled_refs                44433                       # Sample count of references to valid blocks.
system.iocache.tags.avg_refs                        0                       # Average number of references to valid blocks.
system.iocache.tags.warmup_cycle         2938792090017                       # Cycle when the warmup percentage was hit.
system.iocache.tags.occ_blocks::tsunami.ide     0.762916                       # Average occupied blocks per requestor
system.iocache.tags.occ_percent::tsunami.ide     0.047682                       # Average percentage of cache occupancy
system.iocache.tags.occ_percent::total       0.047682                       # Average percentage of cache occupancy
system.iocache.tags.occ_task_id_blocks::1023           16                       # Occupied blocks per task id
system.iocache.tags.age_task_id_blocks_1023::4           16                       # Occupied blocks per task id
system.iocache.tags.occ_task_id_percent::1023            1                       # Percentage of cache occupancy per task id
system.iocache.tags.tag_accesses               400185                       # Number of tag accesses
system.iocache.tags.data_accesses              400185                       # Number of data accesses
system.iocache.WriteInvalidateReq_hits::tsunami.ide        44256                       # number of WriteInvalidateReq hits
system.iocache.WriteInvalidateReq_hits::total        44256                       # number of WriteInvalidateReq hits
system.iocache.ReadReq_misses::tsunami.ide          209                       # number of ReadReq misses
system.iocache.ReadReq_misses::total              209                       # number of ReadReq misses
system.iocache.demand_misses::tsunami.ide          209                       # number of demand (read+write) misses
system.iocache.demand_misses::total               209                       # number of demand (read+write) misses
system.iocache.overall_misses::tsunami.ide          209                       # number of overall misses
system.iocache.overall_misses::total              209                       # number of overall misses
system.iocache.ReadReq_accesses::tsunami.ide          209                       # number of ReadReq accesses(hits+misses)
system.iocache.ReadReq_accesses::total            209                       # number of ReadReq accesses(hits+misses)
system.iocache.WriteInvalidateReq_accesses::tsunami.ide        44256                       # number of WriteInvalidateReq accesses(hits+misses)
system.iocache.WriteInvalidateReq_accesses::total        44256                       # number of WriteInvalidateReq accesses(hits+misses)
system.iocache.demand_accesses::tsunami.ide          209                       # number of demand (read+write) accesses
system.iocache.demand_accesses::total             209                       # number of demand (read+write) accesses
system.iocache.overall_accesses::tsunami.ide          209                       # number of overall (read+write) accesses
system.iocache.overall_accesses::total            209                       # number of overall (read+write) accesses
system.iocache.ReadReq_miss_rate::tsunami.ide            1                       # miss rate for ReadReq accesses
system.iocache.ReadReq_miss_rate::total             1                       # miss rate for ReadReq accesses
system.iocache.demand_miss_rate::tsunami.ide            1                       # miss rate for demand accesses
system.iocache.demand_miss_rate::total              1                       # miss rate for demand accesses
system.iocache.overall_miss_rate::tsunami.ide            1                       # miss rate for overall accesses
system.iocache.overall_miss_rate::total             1                       # miss rate for overall accesses
system.iocache.blocked_cycles::no_mshrs             0                       # number of cycles access was blocked
system.iocache.blocked_cycles::no_targets            0                       # number of cycles access was blocked
system.iocache.blocked::no_mshrs                    0                       # number of cycles access was blocked
system.iocache.blocked::no_targets                  0                       # number of cycles access was blocked
system.iocache.avg_blocked_cycles::no_mshrs          nan                       # average number of cycles each access was blocked
system.iocache.avg_blocked_cycles::no_targets          nan                       # average number of cycles each access was blocked
system.iocache.fast_writes                      44256                       # number of fast writes performed
system.iocache.cache_copies                         0                       # number of cache copies performed
system.iocache.no_allocate_misses                   0                       # Number of misses that were no-allocate
system.disk0.dma_read_full_pages                    0                       # Number of full page size DMA reads (not PRD).
system.disk0.dma_read_bytes                      4096                       # Number of bytes transfered via DMA reads (not PRD).
system.disk0.dma_read_txs                           1                       # Number of DMA read transactions (not PRD).
system.disk0.dma_write_full_pages                 326                       # Number of full page size DMA writes.
system.disk0.dma_write_bytes                  2824192                       # Number of bytes transfered via DMA writes.
system.disk0.dma_write_txs                        365                       # Number of DMA write transactions.
system.disk2.dma_read_full_pages                    0                       # Number of full page size DMA reads (not PRD).
system.disk2.dma_read_bytes                         0                       # Number of bytes transfered via DMA reads (not PRD).
system.disk2.dma_read_txs                           0                       # Number of DMA read transactions (not PRD).
system.disk2.dma_write_full_pages                   1                       # Number of full page size DMA writes.
system.disk2.dma_write_bytes                     8192                       # Number of bytes transfered via DMA writes.
system.disk2.dma_write_txs                          1                       # Number of DMA write transactions.
system.cpu_voltage_domain.voltage                   1                       # Voltage in Volts
system.cpu_clk_domain.clock                     10000                       # Clock period in ticks
system.cpu0.dtb.fetch_hits                          0                       # ITB hits
system.cpu0.dtb.fetch_misses                        0                       # ITB misses
system.cpu0.dtb.fetch_acv                           0                       # ITB acv
system.cpu0.dtb.fetch_accesses                      0                       # ITB accesses
system.cpu0.dtb.read_hits                    11408240                       # DTB read hits
system.cpu0.dtb.read_misses                        43                       # DTB read misses
system.cpu0.dtb.read_acv                            0                       # DTB read access violations
system.cpu0.dtb.read_accesses                    1040                       # DTB read accesses
system.cpu0.dtb.write_hits                    4821702                       # DTB write hits
system.cpu0.dtb.write_misses                        2                       # DTB write misses
system.cpu0.dtb.write_acv                           0                       # DTB write access violations
system.cpu0.dtb.write_accesses                    508                       # DTB write accesses
system.cpu0.dtb.data_hits                    16229942                       # DTB hits
system.cpu0.dtb.data_misses                        45                       # DTB misses
system.cpu0.dtb.data_acv                            0                       # DTB access violations
system.cpu0.dtb.data_accesses                    1548                       # DTB accesses
system.cpu0.itb.fetch_hits                    1526275                       # ITB hits
system.cpu0.itb.fetch_misses                       24                       # ITB misses
system.cpu0.itb.fetch_acv                           0                       # ITB acv
system.cpu0.itb.fetch_accesses                1526299                       # ITB accesses
system.cpu0.itb.read_hits                           0                       # DTB read hits
system.cpu0.itb.read_misses                         0                       # DTB read misses
system.cpu0.itb.read_acv                            0                       # DTB read access violations
system.cpu0.itb.read_accesses                       0                       # DTB read accesses
system.cpu0.itb.write_hits                          0                       # DTB write hits
system.cpu0.itb.write_misses                        0                       # DTB write misses
system.cpu0.itb.write_acv                           0                       # DTB write access violations
system.cpu0.itb.write_accesses                      0                       # DTB write accesses
system.cpu0.itb.data_hits                           0                       # DTB hits
system.cpu0.itb.data_misses                         0                       # DTB misses
system.cpu0.itb.data_acv                            0                       # DTB access violations
system.cpu0.itb.data_accesses                       0                       # DTB accesses
system.cpu0.numCycles                       309384285                       # number of cpu cycles simulated
system.cpu0.numWorkItemsStarted                     0                       # number of work items this cpu started
system.cpu0.numWorkItemsCompleted                   0                       # number of work items this cpu completed
system.cpu0.committedInsts                   67229413                       # Number of instructions committed
system.cpu0.committedOps                     67229413                       # Number of ops (including micro ops) committed
system.cpu0.num_int_alu_accesses             65028132                       # Number of integer alu accesses
system.cpu0.num_fp_alu_accesses                176905                       # Number of float alu accesses
system.cpu0.num_func_calls                    2126830                       # number of times a function call or return occured
system.cpu0.num_conditional_control_insts      9055228                       # number of instructions that are conditional controls
system.cpu0.num_int_insts                    65028132                       # number of integer instructions
system.cpu0.num_fp_insts                       176905                       # number of float instructions
system.cpu0.num_int_register_reads           89052294                       # number of times the integer registers were read
system.cpu0.num_int_register_writes          50248377                       # number of times the integer registers were written
system.cpu0.num_fp_register_reads               62774                       # number of times the floating registers were read
system.cpu0.num_fp_register_writes              64446                       # number of times the floating registers were written
system.cpu0.num_mem_refs                     16249591                       # number of memory refs
system.cpu0.num_load_insts                   11417372                       # Number of load instructions
system.cpu0.num_store_insts                   4832219                       # Number of store instructions
system.cpu0.num_idle_cycles              242166115.928257                       # Number of idle cycles
system.cpu0.num_busy_cycles              67218169.071743                       # Number of busy cycles
system.cpu0.not_idle_fraction                0.217264                       # Percentage of non-idle cycles
system.cpu0.idle_fraction                    0.782736                       # Percentage of idle cycles
system.cpu0.Branches                         11612675                       # Number of branches fetched
system.cpu0.op_class::No_OpClass              1359018      2.02%      2.02% # Class of executed instruction
system.cpu0.op_class::IntAlu                 48608562     72.30%     74.32% # Class of executed instruction
system.cpu0.op_class::IntMult                  127131      0.19%     74.51% # Class of executed instruction
system.cpu0.op_class::IntDiv                        0      0.00%     74.51% # Class of executed instruction
system.cpu0.op_class::FloatAdd                  54245      0.08%     74.59% # Class of executed instruction
system.cpu0.op_class::FloatCmp                      0      0.00%     74.59% # Class of executed instruction
system.cpu0.op_class::FloatCvt                      0      0.00%     74.59% # Class of executed instruction
system.cpu0.op_class::FloatMult                     0      0.00%     74.59% # Class of executed instruction
system.cpu0.op_class::FloatDiv                     82      0.00%     74.59% # Class of executed instruction
system.cpu0.op_class::FloatSqrt                     0      0.00%     74.59% # Class of executed instruction
system.cpu0.op_class::SimdAdd                       0      0.00%     74.59% # Class of executed instruction
system.cpu0.op_class::SimdAddAcc                    0      0.00%     74.59% # Class of executed instruction
system.cpu0.op_class::SimdAlu                       0      0.00%     74.59% # Class of executed instruction
system.cpu0.op_class::SimdCmp                       0      0.00%     74.59% # Class of executed instruction
system.cpu0.op_class::SimdCvt                       0      0.00%     74.59% # Class of executed instruction
system.cpu0.op_class::SimdMisc                      0      0.00%     74.59% # Class of executed instruction
system.cpu0.op_class::SimdMult                      0      0.00%     74.59% # Class of executed instruction
system.cpu0.op_class::SimdMultAcc                   0      0.00%     74.59% # Class of executed instruction
system.cpu0.op_class::SimdShift                     0      0.00%     74.59% # Class of executed instruction
system.cpu0.op_class::SimdShiftAcc                  0      0.00%     74.59% # Class of executed instruction
system.cpu0.op_class::SimdSqrt                      0      0.00%     74.59% # Class of executed instruction
system.cpu0.op_class::SimdFloatAdd                  0      0.00%     74.59% # Class of executed instruction
system.cpu0.op_class::SimdFloatAlu                  0      0.00%     74.59% # Class of executed instruction
system.cpu0.op_class::SimdFloatCmp                  0      0.00%     74.59% # Class of executed instruction
system.cpu0.op_class::SimdFloatCvt                  0      0.00%     74.59% # Class of executed instruction
system.cpu0.op_class::SimdFloatDiv                  0      0.00%     74.59% # Class of executed instruction
system.cpu0.op_class::SimdFloatMisc                 0      0.00%     74.59% # Class of executed instruction
system.cpu0.op_class::SimdFloatMult                 0      0.00%     74.59% # Class of executed instruction
system.cpu0.op_class::SimdFloatMultAcc              0      0.00%     74.59% # Class of executed instruction
system.cpu0.op_class::SimdFloatSqrt                 0      0.00%     74.59% # Class of executed instruction
system.cpu0.op_class::MemRead                11656541     17.34%     91.93% # Class of executed instruction
system.cpu0.op_class::MemWrite                4850617      7.22%     99.15% # Class of executed instruction
system.cpu0.op_class::IprAccess                573262      0.85%    100.00% # Class of executed instruction
system.cpu0.op_class::InstPrefetch                  0      0.00%    100.00% # Class of executed instruction
system.cpu0.op_class::total                  67229458                       # Class of executed instruction
system.cpu0.kern.inst.arm                           0                       # number of arm instructions executed
system.cpu0.kern.inst.quiesce                    7291                       # number of quiesce instructions executed
system.cpu0.kern.inst.hwrei                    139427                       # number of hwrei instructions executed
system.cpu0.kern.ipl_count::0                   47993     36.94%     36.94% # number of times we switched to this ipl
system.cpu0.kern.ipl_count::21                     16      0.01%     36.95% # number of times we switched to this ipl
system.cpu0.kern.ipl_count::22                   3053      2.35%     39.30% # number of times we switched to this ipl
system.cpu0.kern.ipl_count::30                    783      0.60%     39.90% # number of times we switched to this ipl
system.cpu0.kern.ipl_count::31                  78090     60.10%    100.00% # number of times we switched to this ipl
system.cpu0.kern.ipl_count::total              129935                       # number of times we switched to this ipl
system.cpu0.kern.ipl_good::0                    47892     48.45%     48.45% # number of times we switched to this ipl from a different ipl
system.cpu0.kern.ipl_good::21                      16      0.02%     48.46% # number of times we switched to this ipl from a different ipl
system.cpu0.kern.ipl_good::22                    3053      3.09%     51.55% # number of times we switched to this ipl from a different ipl
system.cpu0.kern.ipl_good::30                     783      0.79%     52.34% # number of times we switched to this ipl from a different ipl
system.cpu0.kern.ipl_good::31                   47113     47.66%    100.00% # number of times we switched to this ipl from a different ipl
system.cpu0.kern.ipl_good::total                98857                       # number of times we switched to this ipl from a different ipl
system.cpu0.kern.ipl_ticks::0            2846387070000     92.00%     92.00% # number of cycles we spent at this ipl
system.cpu0.kern.ipl_ticks::21               22810000      0.00%     92.00% # number of cycles we spent at this ipl
system.cpu0.kern.ipl_ticks::22             2989930000      0.10%     92.10% # number of cycles we spent at this ipl
system.cpu0.kern.ipl_ticks::30             1774970000      0.06%     92.16% # number of cycles we spent at this ipl
system.cpu0.kern.ipl_ticks::31           242595040000      7.84%    100.00% # number of cycles we spent at this ipl
system.cpu0.kern.ipl_ticks::total        3093769820000                       # number of cycles we spent at this ipl
system.cpu0.kern.ipl_used::0                 0.997896                       # fraction of swpipl calls that actually changed the ipl
system.cpu0.kern.ipl_used::21                       1                       # fraction of swpipl calls that actually changed the ipl
system.cpu0.kern.ipl_used::22                       1                       # fraction of swpipl calls that actually changed the ipl
system.cpu0.kern.ipl_used::30                       1                       # fraction of swpipl calls that actually changed the ipl
system.cpu0.kern.ipl_used::31                0.603317                       # fraction of swpipl calls that actually changed the ipl
system.cpu0.kern.ipl_used::total             0.760819                       # fraction of swpipl calls that actually changed the ipl
system.cpu0.kern.syscall::3                         1     33.33%     33.33% # number of syscalls executed
system.cpu0.kern.syscall::45                        1     33.33%     66.67% # number of syscalls executed
system.cpu0.kern.syscall::71                        1     33.33%    100.00% # number of syscalls executed
system.cpu0.kern.syscall::total                     3                       # number of syscalls executed
system.cpu0.kern.callpal::cserve                    1      0.00%      0.00% # number of callpals executed
system.cpu0.kern.callpal::wripir                 1259      0.93%      0.93% # number of callpals executed
system.cpu0.kern.callpal::wrmces                    1      0.00%      0.93% # number of callpals executed
system.cpu0.kern.callpal::wrfen                     1      0.00%      0.93% # number of callpals executed
system.cpu0.kern.callpal::wrvptptr                  1      0.00%      0.93% # number of callpals executed
system.cpu0.kern.callpal::swpctx                 1807      1.33%      2.27% # number of callpals executed
system.cpu0.kern.callpal::tbi                       1      0.00%      2.27% # number of callpals executed
system.cpu0.kern.callpal::wrent                     7      0.01%      2.27% # number of callpals executed
system.cpu0.kern.callpal::swpipl               122142     90.14%     92.41% # number of callpals executed
system.cpu0.kern.callpal::rdps                   6333      4.67%     97.08% # number of callpals executed
system.cpu0.kern.callpal::wrkgp                     1      0.00%     97.08% # number of callpals executed
system.cpu0.kern.callpal::rdusp                     2      0.00%     97.08% # number of callpals executed
system.cpu0.kern.callpal::whami                     2      0.00%     97.09% # number of callpals executed
system.cpu0.kern.callpal::rti                    3944      2.91%    100.00% # number of callpals executed
system.cpu0.kern.callpal::callsys                   4      0.00%    100.00% # number of callpals executed
system.cpu0.kern.callpal::imb                       2      0.00%    100.00% # number of callpals executed
system.cpu0.kern.callpal::total                135508                       # number of callpals executed
system.cpu0.kern.mode_switch::kernel             5662                       # number of protection mode switches
system.cpu0.kern.mode_switch::user                  5                       # number of protection mode switches
system.cpu0.kern.mode_switch::idle                  0                       # number of protection mode switches
system.cpu0.kern.mode_good::kernel                  5                      
system.cpu0.kern.mode_good::user                    5                      
system.cpu0.kern.mode_good::idle                    0                      
system.cpu0.kern.mode_switch_good::kernel     0.000883                       # fraction of useful protection mode switches
system.cpu0.kern.mode_switch_good::user             1                       # fraction of useful protection mode switches
system.cpu0.kern.mode_switch_good::idle           nan                       # fraction of useful protection mode switches
system.cpu0.kern.mode_switch_good::total     0.001765                       # fraction of useful protection mode switches
system.cpu0.kern.mode_ticks::kernel      2992213530000    100.00%    100.00% # number of ticks spent at the given mode
system.cpu0.kern.mode_ticks::user            51860000      0.00%    100.00% # number of ticks spent at the given mode
system.cpu0.kern.mode_ticks::idle                   0      0.00%    100.00% # number of ticks spent at the given mode
system.cpu0.kern.swap_context                    1808                       # number of times the context was actually changed
system.tsunami.ethernet.descDMAReads                0                       # Number of descriptors the device read w/ DMA
system.tsunami.ethernet.descDMAWrites               0                       # Number of descriptors the device wrote w/ DMA
system.tsunami.ethernet.descDmaReadBytes            0                       # number of descriptor bytes read w/ DMA
system.tsunami.ethernet.descDmaWriteBytes            0                       # number of descriptor bytes write w/ DMA
system.tsunami.ethernet.postedSwi                   0                       # number of software interrupts posted to CPU
[...]
system.cpu7.op_class::SimdFloatMultAcc              0      0.00%     63.78% # Class of executed instruction
system.cpu7.op_class::SimdFloatSqrt                 0      0.00%     63.78% # Class of executed instruction
system.cpu7.op_class::MemRead                    3404     21.85%     85.63% # Class of executed instruction
system.cpu7.op_class::MemWrite                   1682     10.80%     96.43% # Class of executed instruction
system.cpu7.op_class::IprAccess                   556      3.57%    100.00% # Class of executed instruction
system.cpu7.op_class::InstPrefetch                  0      0.00%    100.00% # Class of executed instruction
system.cpu7.op_class::total                     15576                       # Class of executed instruction
system.cpu7.kern.inst.arm                           0                       # number of arm instructions executed
system.cpu7.kern.inst.quiesce                       8                       # number of quiesce instructions executed
system.cpu7.kern.inst.hwrei                       135                       # number of hwrei instructions executed
system.cpu7.kern.ipl_count::0                      29     23.97%     23.97% # number of times we switched to this ipl
system.cpu7.kern.ipl_count::22                      7      5.79%     29.75% # number of times we switched to this ipl
system.cpu7.kern.ipl_count::30                      1      0.83%     30.58% # number of times we switched to this ipl
system.cpu7.kern.ipl_count::31                     84     69.42%    100.00% # number of times we switched to this ipl
system.cpu7.kern.ipl_count::total                 121                       # number of times we switched to this ipl
system.cpu7.kern.ipl_good::0                       29     44.62%     44.62% # number of times we switched to this ipl from a different ipl
system.cpu7.kern.ipl_good::22                       7     10.77%     55.38% # number of times we switched to this ipl from a different ipl
system.cpu7.kern.ipl_good::30                       1      1.54%     56.92% # number of times we switched to this ipl from a different ipl
system.cpu7.kern.ipl_good::31                      28     43.08%    100.00% # number of times we switched to this ipl from a different ipl
system.cpu7.kern.ipl_good::total                   65                       # number of times we switched to this ipl from a different ipl
system.cpu7.kern.ipl_ticks::0              6769840000     98.72%     98.72% # number of cycles we spent at this ipl
system.cpu7.kern.ipl_ticks::22                6860000      0.10%     98.82% # number of cycles we spent at this ipl
system.cpu7.kern.ipl_ticks::30                3290000      0.05%     98.87% # number of cycles we spent at this ipl
system.cpu7.kern.ipl_ticks::31               77760000      1.13%    100.00% # number of cycles we spent at this ipl
system.cpu7.kern.ipl_ticks::total          6857750000                       # number of cycles we spent at this ipl
system.cpu7.kern.ipl_used::0                        1                       # fraction of swpipl calls that actually changed the ipl
system.cpu7.kern.ipl_used::22                       1                       # fraction of swpipl calls that actually changed the ipl
system.cpu7.kern.ipl_used::30                       1                       # fraction of swpipl calls that actually changed the ipl
system.cpu7.kern.ipl_used::31                0.333333                       # fraction of swpipl calls that actually changed the ipl
system.cpu7.kern.ipl_used::total             0.537190                       # fraction of swpipl calls that actually changed the ipl
system.cpu7.kern.callpal::swpipl                  105     82.68%     82.68% # number of callpals executed
system.cpu7.kern.callpal::rdps                     14     11.02%     93.70% # number of callpals executed
system.cpu7.kern.callpal::rti                       8      6.30%    100.00% # number of callpals executed
system.cpu7.kern.callpal::total                   127                       # number of callpals executed
system.cpu7.kern.mode_switch::kernel                8                       # number of protection mode switches
system.cpu7.kern.mode_switch::user                  0                       # number of protection mode switches
system.cpu7.kern.mode_switch::idle                  0                       # number of protection mode switches
system.cpu7.kern.mode_good::kernel                  0                      
system.cpu7.kern.mode_good::user                    0                      
system.cpu7.kern.mode_good::idle                    0                      
system.cpu7.kern.mode_switch_good::kernel            0                       # fraction of useful protection mode switches
system.cpu7.kern.mode_switch_good::user           nan                       # fraction of useful protection mode switches
system.cpu7.kern.mode_switch_good::idle           nan                       # fraction of useful protection mode switches
system.cpu7.kern.mode_switch_good::total            0                       # fraction of useful protection mode switches
system.cpu7.kern.mode_ticks::kernel                 0                       # number of ticks spent at the given mode
system.cpu7.kern.mode_ticks::user                   0                       # number of ticks spent at the given mode
system.cpu7.kern.mode_ticks::idle                   0                       # number of ticks spent at the given mode
system.cpu7.kern.swap_context                       0                       # number of times the context was actually changed
system.cpu7.icache.tags.replacements               48                       # number of replacements
system.cpu7.icache.tags.tagsinuse                 512                       # Cycle average of tags in use
system.cpu7.icache.tags.total_refs            2212394                       # Total number of references to valid blocks.
system.cpu7.icache.tags.sampled_refs              560                       # Sample count of references to valid blocks.
system.cpu7.icache.tags.avg_refs          3950.703571                       # Average number of references to valid blocks.
system.cpu7.icache.tags.warmup_cycle                0                       # Cycle when the warmup percentage was hit.
system.cpu7.icache.tags.occ_blocks::cpu7.inst          512                       # Average occupied blocks per requestor
system.cpu7.icache.tags.occ_percent::cpu7.inst            1                       # Average percentage of cache occupancy
system.cpu7.icache.tags.occ_percent::total            1                       # Average percentage of cache occupancy
system.cpu7.icache.tags.occ_task_id_blocks::1024          512                       # Occupied blocks per task id
system.cpu7.icache.tags.age_task_id_blocks_1024::2           14                       # Occupied blocks per task id
system.cpu7.icache.tags.age_task_id_blocks_1024::3           11                       # Occupied blocks per task id
system.cpu7.icache.tags.age_task_id_blocks_1024::4          487                       # Occupied blocks per task id
system.cpu7.icache.tags.occ_task_id_percent::1024            1                       # Percentage of cache occupancy per task id
system.cpu7.icache.tags.tag_accesses            31200                       # Number of tag accesses
system.cpu7.icache.tags.data_accesses           31200                       # Number of data accesses
system.cpu7.icache.ReadReq_hits::cpu7.inst        15528                       # number of ReadReq hits
system.cpu7.icache.ReadReq_hits::total          15528                       # number of ReadReq hits
system.cpu7.icache.demand_hits::cpu7.inst        15528                       # number of demand (read+write) hits
system.cpu7.icache.demand_hits::total           15528                       # number of demand (read+write) hits
system.cpu7.icache.overall_hits::cpu7.inst        15528                       # number of overall hits
system.cpu7.icache.overall_hits::total          15528                       # number of overall hits
system.cpu7.icache.ReadReq_misses::cpu7.inst           48                       # number of ReadReq misses
system.cpu7.icache.ReadReq_misses::total           48                       # number of ReadReq misses
system.cpu7.icache.demand_misses::cpu7.inst           48                       # number of demand (read+write) misses
system.cpu7.icache.demand_misses::total            48                       # number of demand (read+write) misses
system.cpu7.icache.overall_misses::cpu7.inst           48                       # number of overall misses
system.cpu7.icache.overall_misses::total           48                       # number of overall misses
system.cpu7.icache.ReadReq_accesses::cpu7.inst        15576                       # number of ReadReq accesses(hits+misses)
system.cpu7.icache.ReadReq_accesses::total        15576                       # number of ReadReq accesses(hits+misses)
system.cpu7.icache.demand_accesses::cpu7.inst        15576                       # number of demand (read+write) accesses
system.cpu7.icache.demand_accesses::total        15576                       # number of demand (read+write) accesses
system.cpu7.icache.overall_accesses::cpu7.inst        15576                       # number of overall (read+write) accesses
system.cpu7.icache.overall_accesses::total        15576                       # number of overall (read+write) accesses
system.cpu7.icache.ReadReq_miss_rate::cpu7.inst     0.003082                       # miss rate for ReadReq accesses
system.cpu7.icache.ReadReq_miss_rate::total     0.003082                       # miss rate for ReadReq accesses
system.cpu7.icache.demand_miss_rate::cpu7.inst     0.003082                       # miss rate for demand accesses
system.cpu7.icache.demand_miss_rate::total     0.003082                       # miss rate for demand accesses
system.cpu7.icache.overall_miss_rate::cpu7.inst     0.003082                       # miss rate for overall accesses
system.cpu7.icache.overall_miss_rate::total     0.003082                       # miss rate for overall accesses
system.cpu7.icache.blocked_cycles::no_mshrs            0                       # number of cycles access was blocked
system.cpu7.icache.blocked_cycles::no_targets            0                       # number of cycles access was blocked
system.cpu7.icache.blocked::no_mshrs                0                       # number of cycles access was blocked
system.cpu7.icache.blocked::no_targets              0                       # number of cycles access was blocked
system.cpu7.icache.avg_blocked_cycles::no_mshrs          nan                       # average number of cycles each access was blocked
system.cpu7.icache.avg_blocked_cycles::no_targets          nan                       # average number of cycles each access was blocked
system.cpu7.icache.fast_writes                      0                       # number of fast writes performed
system.cpu7.icache.cache_copies                     0                       # number of cache copies performed
system.cpu7.icache.no_allocate_misses               0                       # Number of misses that were no-allocate
system.cpu7.dcache.tags.replacements               17                       # number of replacements
system.cpu7.dcache.tags.tagsinuse          873.263781                       # Cycle average of tags in use
system.cpu7.dcache.tags.total_refs             112334                       # Total number of references to valid blocks.
system.cpu7.dcache.tags.sampled_refs              889                       # Sample count of references to valid blocks.
system.cpu7.dcache.tags.avg_refs           126.359955                       # Average number of references to valid blocks.
system.cpu7.dcache.tags.warmup_cycle                0                       # Cycle when the warmup percentage was hit.
system.cpu7.dcache.tags.occ_blocks::cpu7.data   873.263781                       # Average occupied blocks per requestor
system.cpu7.dcache.tags.occ_percent::cpu7.data     0.852797                       # Average percentage of cache occupancy
system.cpu7.dcache.tags.occ_percent::total     0.852797                       # Average percentage of cache occupancy
system.cpu7.dcache.tags.occ_task_id_blocks::1024          872                       # Occupied blocks per task id
system.cpu7.dcache.tags.age_task_id_blocks_1024::2           29                       # Occupied blocks per task id
system.cpu7.dcache.tags.age_task_id_blocks_1024::3           10                       # Occupied blocks per task id
system.cpu7.dcache.tags.age_task_id_blocks_1024::4          833                       # Occupied blocks per task id
system.cpu7.dcache.tags.occ_task_id_percent::1024     0.851562                       # Percentage of cache occupancy per task id
system.cpu7.dcache.tags.tag_accesses            10091                       # Number of tag accesses
system.cpu7.dcache.tags.data_accesses           10091                       # Number of data accesses
system.cpu7.dcache.ReadReq_hits::cpu7.data         3209                       # number of ReadReq hits
system.cpu7.dcache.ReadReq_hits::total           3209                       # number of ReadReq hits
system.cpu7.dcache.WriteReq_hits::cpu7.data         1615                       # number of WriteReq hits
system.cpu7.dcache.WriteReq_hits::total          1615                       # number of WriteReq hits
system.cpu7.dcache.LoadLockedReq_hits::cpu7.data           33                       # number of LoadLockedReq hits
system.cpu7.dcache.LoadLockedReq_hits::total           33                       # number of LoadLockedReq hits
system.cpu7.dcache.StoreCondReq_hits::cpu7.data           19                       # number of StoreCondReq hits
system.cpu7.dcache.StoreCondReq_hits::total           19                       # number of StoreCondReq hits
system.cpu7.dcache.demand_hits::cpu7.data         4824                       # number of demand (read+write) hits
system.cpu7.dcache.demand_hits::total            4824                       # number of demand (read+write) hits
system.cpu7.dcache.overall_hits::cpu7.data         4824                       # number of overall hits
system.cpu7.dcache.overall_hits::total           4824                       # number of overall hits
system.cpu7.dcache.ReadReq_misses::cpu7.data           92                       # number of ReadReq misses
system.cpu7.dcache.ReadReq_misses::total           92                       # number of ReadReq misses
system.cpu7.dcache.WriteReq_misses::cpu7.data           15                       # number of WriteReq misses
system.cpu7.dcache.WriteReq_misses::total           15                       # number of WriteReq misses
system.cpu7.dcache.LoadLockedReq_misses::cpu7.data            3                       # number of LoadLockedReq misses
system.cpu7.dcache.LoadLockedReq_misses::total            3                       # number of LoadLockedReq misses
system.cpu7.dcache.StoreCondReq_misses::cpu7.data           10                       # number of StoreCondReq misses
system.cpu7.dcache.StoreCondReq_misses::total           10                       # number of StoreCondReq misses
system.cpu7.dcache.demand_misses::cpu7.data          107                       # number of demand (read+write) misses
system.cpu7.dcache.demand_misses::total           107                       # number of demand (read+write) misses
system.cpu7.dcache.overall_misses::cpu7.data          107                       # number of overall misses
system.cpu7.dcache.overall_misses::total          107                       # number of overall misses
system.cpu7.dcache.ReadReq_accesses::cpu7.data         3301                       # number of ReadReq accesses(hits+misses)
system.cpu7.dcache.ReadReq_accesses::total         3301                       # number of ReadReq accesses(hits+misses)
system.cpu7.dcache.WriteReq_accesses::cpu7.data         1630                       # number of WriteReq accesses(hits+misses)
system.cpu7.dcache.WriteReq_accesses::total         1630                       # number of WriteReq accesses(hits+misses)
system.cpu7.dcache.LoadLockedReq_accesses::cpu7.data           36                       # number of LoadLockedReq accesses(hits+misses)
system.cpu7.dcache.LoadLockedReq_accesses::total           36                       # number of LoadLockedReq accesses(hits+misses)
system.cpu7.dcache.StoreCondReq_accesses::cpu7.data           29                       # number of StoreCondReq accesses(hits+misses)
system.cpu7.dcache.StoreCondReq_accesses::total           29                       # number of StoreCondReq accesses(hits+misses)
system.cpu7.dcache.demand_accesses::cpu7.data         4931                       # number of demand (read+write) accesses
system.cpu7.dcache.demand_accesses::total         4931                       # number of demand (read+write) accesses
system.cpu7.dcache.overall_accesses::cpu7.data         4931                       # number of overall (read+write) accesses
system.cpu7.dcache.overall_accesses::total         4931                       # number of overall (read+write) accesses
system.cpu7.dcache.ReadReq_miss_rate::cpu7.data     0.027870                       # miss rate for ReadReq accesses
system.cpu7.dcache.ReadReq_miss_rate::total     0.027870                       # miss rate for ReadReq accesses
system.cpu7.dcache.WriteReq_miss_rate::cpu7.data     0.009202                       # miss rate for WriteReq accesses
system.cpu7.dcache.WriteReq_miss_rate::total     0.009202                       # miss rate for WriteReq accesses
system.cpu7.dcache.LoadLockedReq_miss_rate::cpu7.data     0.083333                       # miss rate for LoadLockedReq accesses
system.cpu7.dcache.LoadLockedReq_miss_rate::total     0.083333                       # miss rate for LoadLockedReq accesses
system.cpu7.dcache.StoreCondReq_miss_rate::cpu7.data     0.344828                       # miss rate for StoreCondReq accesses
system.cpu7.dcache.StoreCondReq_miss_rate::total     0.344828                       # miss rate for StoreCondReq accesses
system.cpu7.dcache.demand_miss_rate::cpu7.data     0.021699                       # miss rate for demand accesses
system.cpu7.dcache.demand_miss_rate::total     0.021699                       # miss rate for demand accesses
system.cpu7.dcache.overall_miss_rate::cpu7.data     0.021699                       # miss rate for overall accesses
system.cpu7.dcache.overall_miss_rate::total     0.021699                       # miss rate for overall accesses
system.cpu7.dcache.blocked_cycles::no_mshrs            0                       # number of cycles access was blocked
system.cpu7.dcache.blocked_cycles::no_targets            0                       # number of cycles access was blocked
system.cpu7.dcache.blocked::no_mshrs                0                       # number of cycles access was blocked
system.cpu7.dcache.blocked::no_targets              0                       # number of cycles access was blocked
system.cpu7.dcache.avg_blocked_cycles::no_mshrs          nan                       # average number of cycles each access was blocked
system.cpu7.dcache.avg_blocked_cycles::no_targets          nan                       # average number of cycles each access was blocked
system.cpu7.dcache.fast_writes                      0                       # number of fast writes performed
system.cpu7.dcache.cache_copies                     0                       # number of cache copies performed
system.cpu7.dcache.writebacks::writebacks            1                       # number of writebacks
system.cpu7.dcache.writebacks::total                1                       # number of writebacks
system.cpu7.dcache.no_allocate_misses               0                       # Number of misses that were no-allocate

---------- End Simulation Statistics   ----------
