
---------- Begin Simulation Statistics ----------
sim_seconds                                  3.151270                       # Number of seconds simulated
sim_ticks                                3151270180000                       # Number of ticks simulated
final_tick                               3151270180000                       # Number of ticks from beginning of simulation (restored from checkpoints and never reset)
sim_freq                                 1000000000000                       # Frequency of simulated ticks
host_inst_rate                                3212585                       # Simulator instruction rate (inst/s)
host_op_rate                                  3212584                       # Simulator op (including micro ops) rate (op/s)
host_tick_rate                            49602231375                       # Simulator tick rate (ticks/s)
host_mem_usage                                 504300                       # Number of bytes of host memory used
host_seconds                                    63.53                       # Real time elapsed on the host
sim_insts                                   204098050                       # Number of instructions simulated
sim_ops                                     204098050                       # Number of ops (including micro ops) simulated
system.voltage_domain.voltage                       1                       # Voltage in Volts
system.clk_domain.clock                          1000                       # Clock period in ticks
system.mem_ctrls.bytes_read::cpu00.inst      39954688                       # Number of bytes read from this memory
system.mem_ctrls.bytes_read::cpu00.data     156623616                       # Number of bytes read from this memory
system.mem_ctrls.bytes_read::tsunami.ide         4864                       # Number of bytes read from this memory
system.mem_ctrls.bytes_read::cpu01.inst      20693824                       # Number of bytes read from this memory
system.mem_ctrls.bytes_read::cpu01.data       9716416                       # Number of bytes read from this memory
system.mem_ctrls.bytes_read::cpu02.inst      31524160                       # Number of bytes read from this memory
system.mem_ctrls.bytes_read::cpu02.data      11616000                       # Number of bytes read from this memory
system.mem_ctrls.bytes_read::cpu03.inst       5037504                       # Number of bytes read from this memory
system.mem_ctrls.bytes_read::cpu03.data       2497856                       # Number of bytes read from this memory
system.mem_ctrls.bytes_read::cpu04.inst       3040640                       # Number of bytes read from this memory
system.mem_ctrls.bytes_read::cpu04.data       3695744                       # Number of bytes read from this memory
system.mem_ctrls.bytes_read::cpu05.inst       2199872                       # Number of bytes read from this memory
system.mem_ctrls.bytes_read::cpu05.data       2370368                       # Number of bytes read from this memory
system.mem_ctrls.bytes_read::cpu06.inst       1007168                       # Number of bytes read from this memory
system.mem_ctrls.bytes_read::cpu06.data       1080640                       # Number of bytes read from this memory
system.mem_ctrls.bytes_read::cpu07.inst       1233280                       # Number of bytes read from this memory
system.mem_ctrls.bytes_read::cpu07.data       1710848                       # Number of bytes read from this memory
system.mem_ctrls.bytes_read::cpu08.inst        908928                       # Number of bytes read from this memory
system.mem_ctrls.bytes_read::cpu08.data        998528                       # Number of bytes read from this memory
system.mem_ctrls.bytes_read::cpu09.inst        908288                       # Number of bytes read from this memory
system.mem_ctrls.bytes_read::cpu09.data        980608                       # Number of bytes read from this memory
system.mem_ctrls.bytes_read::cpu10.inst        908032                       # Number of bytes read from this memory
system.mem_ctrls.bytes_read::cpu10.data        997568                       # Number of bytes read from this memory
system.mem_ctrls.bytes_read::cpu11.inst        906304                       # Number of bytes read from this memory
system.mem_ctrls.bytes_read::cpu11.data        999936                       # Number of bytes read from this memory
system.mem_ctrls.bytes_read::cpu12.inst        906048                       # Number of bytes read from this memory
system.mem_ctrls.bytes_read::cpu12.data       1012160                       # Number of bytes read from this memory
system.mem_ctrls.bytes_read::cpu13.inst        906752                       # Number of bytes read from this memory
system.mem_ctrls.bytes_read::cpu13.data       1004864                       # Number of bytes read from this memory
system.mem_ctrls.bytes_read::cpu14.inst        906304                       # Number of bytes read from this memory
system.mem_ctrls.bytes_read::cpu14.data       1010688                       # Number of bytes read from this memory
system.mem_ctrls.bytes_read::cpu15.inst        912384                       # Number of bytes read from this memory
system.mem_ctrls.bytes_read::cpu15.data       1024384                       # Number of bytes read from this memory
system.mem_ctrls.bytes_read::total          309299264                       # Number of bytes read from this memory
system.mem_ctrls.bytes_inst_read::cpu00.inst     39954688                       # Number of instructions bytes read from this memory
system.mem_ctrls.bytes_inst_read::cpu01.inst     20693824                       # Number of instructions bytes read from this memory
system.mem_ctrls.bytes_inst_read::cpu02.inst     31524160                       # Number of instructions bytes read from this memory
system.mem_ctrls.bytes_inst_read::cpu03.inst      5037504                       # Number of instructions bytes read from this memory
system.mem_ctrls.bytes_inst_read::cpu04.inst      3040640                       # Number of instructions bytes read from this memory
system.mem_ctrls.bytes_inst_read::cpu05.inst      2199872                       # Number of instructions bytes read from this memory
system.mem_ctrls.bytes_inst_read::cpu06.inst      1007168                       # Number of instructions bytes read from this memory
system.mem_ctrls.bytes_inst_read::cpu07.inst      1233280                       # Number of instructions bytes read from this memory
system.mem_ctrls.bytes_inst_read::cpu08.inst       908928                       # Number of instructions bytes read from this memory
system.mem_ctrls.bytes_inst_read::cpu09.inst       908288                       # Number of instructions bytes read from this memory
system.mem_ctrls.bytes_inst_read::cpu10.inst       908032                       # Number of instructions bytes read from this memory
system.mem_ctrls.bytes_inst_read::cpu11.inst       906304                       # Number of instructions bytes read from this memory
system.mem_ctrls.bytes_inst_read::cpu12.inst       906048                       # Number of instructions bytes read from this memory
system.mem_ctrls.bytes_inst_read::cpu13.inst       906752                       # Number of instructions bytes read from this memory
system.mem_ctrls.bytes_inst_read::cpu14.inst       906304                       # Number of instructions bytes read from this memory
system.mem_ctrls.bytes_inst_read::cpu15.inst       912384                       # Number of instructions bytes read from this memory
system.mem_ctrls.bytes_inst_read::total     111954176                       # Number of instructions bytes read from this memory
system.mem_ctrls.bytes_written::writebacks     34844608                       # Number of bytes written to this memory
system.mem_ctrls.bytes_written::tsunami.ide      2832384                       # Number of bytes written to this memory
system.mem_ctrls.bytes_written::total        37676992                       # Number of bytes written to this memory
system.mem_ctrls.num_reads::cpu00.inst         624292                       # Number of read requests responded to by this memory
system.mem_ctrls.num_reads::cpu00.data        2447244                       # Number of read requests responded to by this memory
system.mem_ctrls.num_reads::tsunami.ide            76                       # Number of read requests responded to by this memory
system.mem_ctrls.num_reads::cpu01.inst         323341                       # Number of read requests responded to by this memory
system.mem_ctrls.num_reads::cpu01.data         151819                       # Number of read requests responded to by this memory
system.mem_ctrls.num_reads::cpu02.inst         492565                       # Number of read requests responded to by this memory
system.mem_ctrls.num_reads::cpu02.data         181500                       # Number of read requests responded to by this memory
system.mem_ctrls.num_reads::cpu03.inst          78711                       # Number of read requests responded to by this memory
system.mem_ctrls.num_reads::cpu03.data          39029                       # Number of read requests responded to by this memory
system.mem_ctrls.num_reads::cpu04.inst          47510                       # Number of read requests responded to by this memory
system.mem_ctrls.num_reads::cpu04.data          57746                       # Number of read requests responded to by this memory
system.mem_ctrls.num_reads::cpu05.inst          34373                       # Number of read requests responded to by this memory
system.mem_ctrls.num_reads::cpu05.data          37037                       # Number of read requests responded to by this memory
system.mem_ctrls.num_reads::cpu06.inst          15737                       # Number of read requests responded to by this memory
system.mem_ctrls.num_reads::cpu06.data          16885                       # Number of read requests responded to by this memory
system.mem_ctrls.num_reads::cpu07.inst          19270                       # Number of read requests responded to by this memory
system.mem_ctrls.num_reads::cpu07.data          26732                       # Number of read requests responded to by this memory
system.mem_ctrls.num_reads::cpu08.inst          14202                       # Number of read requests responded to by this memory
system.mem_ctrls.num_reads::cpu08.data          15602                       # Number of read requests responded to by this memory
system.mem_ctrls.num_reads::cpu09.inst          14192                       # Number of read requests responded to by this memory
system.mem_ctrls.num_reads::cpu09.data          15322                       # Number of read requests responded to by this memory
system.mem_ctrls.num_reads::cpu10.inst          14188                       # Number of read requests responded to by this memory
system.mem_ctrls.num_reads::cpu10.data          15587                       # Number of read requests responded to by this memory
system.mem_ctrls.num_reads::cpu11.inst          14161                       # Number of read requests responded to by this memory
system.mem_ctrls.num_reads::cpu11.data          15624                       # Number of read requests responded to by this memory
system.mem_ctrls.num_reads::cpu12.inst          14157                       # Number of read requests responded to by this memory
system.mem_ctrls.num_reads::cpu12.data          15815                       # Number of read requests responded to by this memory
system.mem_ctrls.num_reads::cpu13.inst          14168                       # Number of read requests responded to by this memory
system.mem_ctrls.num_reads::cpu13.data          15701                       # Number of read requests responded to by this memory
system.mem_ctrls.num_reads::cpu14.inst          14161                       # Number of read requests responded to by this memory
system.mem_ctrls.num_reads::cpu14.data          15792                       # Number of read requests responded to by this memory
system.mem_ctrls.num_reads::cpu15.inst          14256                       # Number of read requests responded to by this memory
system.mem_ctrls.num_reads::cpu15.data          16006                       # Number of read requests responded to by this memory
system.mem_ctrls.num_reads::total             4832801                       # Number of read requests responded to by this memory
system.mem_ctrls.num_writes::writebacks        544447                       # Number of write requests responded to by this memory
system.mem_ctrls.num_writes::tsunami.ide        44256                       # Number of write requests responded to by this memory
system.mem_ctrls.num_writes::total             588703                       # Number of write requests responded to by this memory
system.mem_ctrls.bw_read::cpu00.inst         12678915                       # Total read bandwidth from this memory (bytes/s)
system.mem_ctrls.bw_read::cpu00.data         49701742                       # Total read bandwidth from this memory (bytes/s)
system.mem_ctrls.bw_read::tsunami.ide            1544                       # Total read bandwidth from this memory (bytes/s)
system.mem_ctrls.bw_read::cpu01.inst          6566820                       # Total read bandwidth from this memory (bytes/s)
system.mem_ctrls.bw_read::cpu01.data          3083333                       # Total read bandwidth from this memory (bytes/s)
system.mem_ctrls.bw_read::cpu02.inst         10003636                       # Total read bandwidth from this memory (bytes/s)
system.mem_ctrls.bw_read::cpu02.data          3686133                       # Total read bandwidth from this memory (bytes/s)
system.mem_ctrls.bw_read::cpu03.inst          1598563                       # Total read bandwidth from this memory (bytes/s)
system.mem_ctrls.bw_read::cpu03.data           792651                       # Total read bandwidth from this memory (bytes/s)
system.mem_ctrls.bw_read::cpu04.inst           964893                       # Total read bandwidth from this memory (bytes/s)
system.mem_ctrls.bw_read::cpu04.data          1172779                       # Total read bandwidth from this memory (bytes/s)
system.mem_ctrls.bw_read::cpu05.inst           698091                       # Total read bandwidth from this memory (bytes/s)
system.mem_ctrls.bw_read::cpu05.data           752194                       # Total read bandwidth from this memory (bytes/s)
system.mem_ctrls.bw_read::cpu06.inst           319607                       # Total read bandwidth from this memory (bytes/s)
system.mem_ctrls.bw_read::cpu06.data           342922                       # Total read bandwidth from this memory (bytes/s)
system.mem_ctrls.bw_read::cpu07.inst           391360                       # Total read bandwidth from this memory (bytes/s)
system.mem_ctrls.bw_read::cpu07.data           542907                       # Total read bandwidth from this memory (bytes/s)
system.mem_ctrls.bw_read::cpu08.inst           288432                       # Total read bandwidth from this memory (bytes/s)
system.mem_ctrls.bw_read::cpu08.data           316865                       # Total read bandwidth from this memory (bytes/s)
system.mem_ctrls.bw_read::cpu09.inst           288229                       # Total read bandwidth from this memory (bytes/s)
system.mem_ctrls.bw_read::cpu09.data           311179                       # Total read bandwidth from this memory (bytes/s)
system.mem_ctrls.bw_read::cpu10.inst           288148                       # Total read bandwidth from this memory (bytes/s)
system.mem_ctrls.bw_read::cpu10.data           316561                       # Total read bandwidth from this memory (bytes/s)
system.mem_ctrls.bw_read::cpu11.inst           287600                       # Total read bandwidth from this memory (bytes/s)
system.mem_ctrls.bw_read::cpu11.data           317312                       # Total read bandwidth from this memory (bytes/s)
system.mem_ctrls.bw_read::cpu12.inst           287518                       # Total read bandwidth from this memory (bytes/s)
system.mem_ctrls.bw_read::cpu12.data           321191                       # Total read bandwidth from this memory (bytes/s)
system.mem_ctrls.bw_read::cpu13.inst           287742                       # Total read bandwidth from this memory (bytes/s)
system.mem_ctrls.bw_read::cpu13.data           318876                       # Total read bandwidth from this memory (bytes/s)
system.mem_ctrls.bw_read::cpu14.inst           287600                       # Total read bandwidth from this memory (bytes/s)
system.mem_ctrls.bw_read::cpu14.data           320724                       # Total read bandwidth from this memory (bytes/s)
system.mem_ctrls.bw_read::cpu15.inst           289529                       # Total read bandwidth from this memory (bytes/s)
system.mem_ctrls.bw_read::cpu15.data           325070                       # Total read bandwidth from this memory (bytes/s)
system.mem_ctrls.bw_read::total              98150665                       # Total read bandwidth from this memory (bytes/s)
system.mem_ctrls.bw_inst_read::cpu00.inst     12678915                       # Instruction read bandwidth from this memory (bytes/s)
system.mem_ctrls.bw_inst_read::cpu01.inst      6566820                       # Instruction read bandwidth from this memory (bytes/s)
system.mem_ctrls.bw_inst_read::cpu02.inst     10003636                       # Instruction read bandwidth from this memory (bytes/s)
system.mem_ctrls.bw_inst_read::cpu03.inst      1598563                       # Instruction read bandwidth from this memory (bytes/s)
system.mem_ctrls.bw_inst_read::cpu04.inst       964893                       # Instruction read bandwidth from this memory (bytes/s)
system.mem_ctrls.bw_inst_read::cpu05.inst       698091                       # Instruction read bandwidth from this memory (bytes/s)
system.mem_ctrls.bw_inst_read::cpu06.inst       319607                       # Instruction read bandwidth from this memory (bytes/s)
system.mem_ctrls.bw_inst_read::cpu07.inst       391360                       # Instruction read bandwidth from this memory (bytes/s)
system.mem_ctrls.bw_inst_read::cpu08.inst       288432                       # Instruction read bandwidth from this memory (bytes/s)
system.mem_ctrls.bw_inst_read::cpu09.inst       288229                       # Instruction read bandwidth from this memory (bytes/s)
system.mem_ctrls.bw_inst_read::cpu10.inst       288148                       # Instruction read bandwidth from this memory (bytes/s)
system.mem_ctrls.bw_inst_read::cpu11.inst       287600                       # Instruction read bandwidth from this memory (bytes/s)
system.mem_ctrls.bw_inst_read::cpu12.inst       287518                       # Instruction read bandwidth from this memory (bytes/s)
system.mem_ctrls.bw_inst_read::cpu13.inst       287742                       # Instruction read bandwidth from this memory (bytes/s)
system.mem_ctrls.bw_inst_read::cpu14.inst       287600                       # Instruction read bandwidth from this memory (bytes/s)
system.mem_ctrls.bw_inst_read::cpu15.inst       289529                       # Instruction read bandwidth from this memory (bytes/s)
system.mem_ctrls.bw_inst_read::total         35526683                       # Instruction read bandwidth from this memory (bytes/s)
system.mem_ctrls.bw_write::writebacks        11057322                       # Write bandwidth from this memory (bytes/s)
system.mem_ctrls.bw_write::tsunami.ide         898807                       # Write bandwidth from this memory (bytes/s)
system.mem_ctrls.bw_write::total             11956129                       # Write bandwidth from this memory (bytes/s)
system.mem_ctrls.bw_total::writebacks        11057322                       # Total bandwidth to/from this memory (bytes/s)
system.mem_ctrls.bw_total::cpu00.inst        12678915                       # Total bandwidth to/from this memory (bytes/s)
system.mem_ctrls.bw_total::cpu00.data        49701742                       # Total bandwidth to/from this memory (bytes/s)
system.mem_ctrls.bw_total::tsunami.ide         900351                       # Total bandwidth to/from this memory (bytes/s)
system.mem_ctrls.bw_total::cpu01.inst         6566820                       # Total bandwidth to/from this memory (bytes/s)
system.mem_ctrls.bw_total::cpu01.data         3083333                       # Total bandwidth to/from this memory (bytes/s)
system.mem_ctrls.bw_total::cpu02.inst        10003636                       # Total bandwidth to/from this memory (bytes/s)
system.mem_ctrls.bw_total::cpu02.data         3686133                       # Total bandwidth to/from this memory (bytes/s)
system.mem_ctrls.bw_total::cpu03.inst         1598563                       # Total bandwidth to/from this memory (bytes/s)
system.mem_ctrls.bw_total::cpu03.data          792651                       # Total bandwidth to/from this memory (bytes/s)
system.mem_ctrls.bw_total::cpu04.inst          964893                       # Total bandwidth to/from this memory (bytes/s)
system.mem_ctrls.bw_total::cpu04.data         1172779                       # Total bandwidth to/from this memory (bytes/s)
system.mem_ctrls.bw_total::cpu05.inst          698091                       # Total bandwidth to/from this memory (bytes/s)
system.mem_ctrls.bw_total::cpu05.data          752194                       # Total bandwidth to/from this memory (bytes/s)
system.mem_ctrls.bw_total::cpu06.inst          319607                       # Total bandwidth to/from this memory (bytes/s)
system.mem_ctrls.bw_total::cpu06.data          342922                       # Total bandwidth to/from this memory (bytes/s)
system.mem_ctrls.bw_total::cpu07.inst          391360                       # Total bandwidth to/from this memory (bytes/s)
system.mem_ctrls.bw_total::cpu07.data          542907                       # Total bandwidth to/from this memory (bytes/s)
system.mem_ctrls.bw_total::cpu08.inst          288432                       # Total bandwidth to/from this memory (bytes/s)
system.mem_ctrls.bw_total::cpu08.data          316865                       # Total bandwidth to/from this memory (bytes/s)
system.mem_ctrls.bw_total::cpu09.inst          288229                       # Total bandwidth to/from this memory (bytes/s)
system.mem_ctrls.bw_total::cpu09.data          311179                       # Total bandwidth to/from this memory (bytes/s)
system.mem_ctrls.bw_total::cpu10.inst          288148                       # Total bandwidth to/from this memory (bytes/s)
system.mem_ctrls.bw_total::cpu10.data          316561                       # Total bandwidth to/from this memory (bytes/s)
system.mem_ctrls.bw_total::cpu11.inst          287600                       # Total bandwidth to/from this memory (bytes/s)
system.mem_ctrls.bw_total::cpu11.data          317312                       # Total bandwidth to/from this memory (bytes/s)
system.mem_ctrls.bw_total::cpu12.inst          287518                       # Total bandwidth to/from this memory (bytes/s)
system.mem_ctrls.bw_total::cpu12.data          321191                       # Total bandwidth to/from this memory (bytes/s)
system.mem_ctrls.bw_total::cpu13.inst          287742                       # Total bandwidth to/from this memory (bytes/s)
system.mem_ctrls.bw_total::cpu13.data          318876                       # Total bandwidth to/from this memory (bytes/s)
system.mem_ctrls.bw_total::cpu14.inst          287600                       # Total bandwidth to/from this memory (bytes/s)
system.mem_ctrls.bw_total::cpu14.data          320724                       # Total bandwidth to/from this memory (bytes/s)
system.mem_ctrls.bw_total::cpu15.inst          289529                       # Total bandwidth to/from this memory (bytes/s)
system.mem_ctrls.bw_total::cpu15.data          325070                       # Total bandwidth to/from this memory (bytes/s)
system.mem_ctrls.bw_total::total            110106794                       # Total bandwidth to/from this memory (bytes/s)
system.mem_ctrls.readReqs                           0                       # Number of read requests accepted
system.mem_ctrls.writeReqs                          0                       # Number of write requests accepted
system.mem_ctrls.readBursts                         0                       # Number of DRAM read bursts, including those serviced by the write queue
system.mem_ctrls.writeBursts                        0                       # Number of DRAM write bursts, including those merged in the write queue
system.mem_ctrls.bytesReadDRAM                      0                       # Total number of bytes read from DRAM
system.mem_ctrls.bytesReadWrQ                       0                       # Total number of bytes read from write queue
system.mem_ctrls.bytesWritten                       0                       # Total number of bytes written to DRAM
system.mem_ctrls.bytesReadSys                       0                       # Total read bytes from the system interface side
system.mem_ctrls.bytesWrittenSys                    0                       # Total written bytes from the system interface side
system.mem_ctrls.servicedByWrQ                      0                       # Number of DRAM read bursts serviced by the write queue
system.mem_ctrls.mergedWrBursts                     0                       # Number of DRAM write bursts merged with an existing one
system.mem_ctrls.neitherReadNorWriteReqs            0                       # Number of requests that are neither read nor write
system.mem_ctrls.perBankRdBursts::0                 0                       # Per bank write bursts
system.mem_ctrls.perBankRdBursts::1                 0                       # Per bank write bursts
system.mem_ctrls.perBankRdBursts::2                 0                       # Per bank write bursts
system.mem_ctrls.perBankRdBursts::3                 0                       # Per bank write bursts
system.mem_ctrls.perBankRdBursts::4                 0                       # Per bank write bursts
system.mem_ctrls.perBankRdBursts::5                 0                       # Per bank write bursts
system.mem_ctrls.perBankRdBursts::6                 0                       # Per bank write bursts
system.mem_ctrls.perBankRdBursts::7                 0                       # Per bank write bursts
system.mem_ctrls.perBankRdBursts::8                 0                       # Per bank write bursts
system.mem_ctrls.perBankRdBursts::9                 0                       # Per bank write bursts
system.mem_ctrls.perBankRdBursts::10                0                       # Per bank write bursts
system.mem_ctrls.perBankRdBursts::11                0                       # Per bank write bursts
system.mem_ctrls.perBankRdBursts::12                0                       # Per bank write bursts
system.mem_ctrls.perBankRdBursts::13                0                       # Per bank write bursts
system.mem_ctrls.perBankRdBursts::14                0                       # Per bank write bursts
system.mem_ctrls.perBankRdBursts::15                0                       # Per bank write bursts
system.mem_ctrls.perBankWrBursts::0                 0                       # Per bank write bursts
system.mem_ctrls.perBankWrBursts::1                 0                       # Per bank write bursts
system.mem_ctrls.perBankWrBursts::2                 0                       # Per bank write bursts
system.mem_ctrls.perBankWrBursts::3                 0                       # Per bank write bursts
system.mem_ctrls.perBankWrBursts::4                 0                       # Per bank write bursts
system.mem_ctrls.perBankWrBursts::5                 0                       # Per bank write bursts
system.mem_ctrls.perBankWrBursts::6                 0                       # Per bank write bursts
system.mem_ctrls.perBankWrBursts::7                 0                       # Per bank write bursts
system.mem_ctrls.perBankWrBursts::8                 0                       # Per bank write bursts
system.mem_ctrls.perBankWrBursts::9                 0                       # Per bank write bursts
system.mem_ctrls.perBankWrBursts::10                0                       # Per bank write bursts
system.mem_ctrls.perBankWrBursts::11                0                       # Per bank write bursts
system.mem_ctrls.perBankWrBursts::12                0                       # Per bank write bursts
system.mem_ctrls.perBankWrBursts::13                0                       # Per bank write bursts
system.mem_ctrls.perBankWrBursts::14                0                       # Per bank write bursts
system.mem_ctrls.perBankWrBursts::15                0                       # Per bank write bursts
system.mem_ctrls.numRdRetry                         0                       # Number of times read queue was full causing retry
system.mem_ctrls.numWrRetry                         0                       # Number of times write queue was full causing retry
system.mem_ctrls.totGap                             0                       # Total gap between requests
system.mem_ctrls.readPktSize::0                     0                       # Read request sizes (log2)
system.mem_ctrls.readPktSize::1                     0                       # Read request sizes (log2)
system.mem_ctrls.readPktSize::2                     0                       # Read request sizes (log2)
system.mem_ctrls.readPktSize::3                     0                       # Read request sizes (log2)
system.mem_ctrls.readPktSize::4                     0                       # Read request sizes (log2)
system.mem_ctrls.readPktSize::5                     0                       # Read request sizes (log2)
system.mem_ctrls.readPktSize::6                     0                       # Read request sizes (log2)
system.mem_ctrls.writePktSize::0                    0                       # Write request sizes (log2)
system.mem_ctrls.writePktSize::1                    0                       # Write request sizes (log2)
system.mem_ctrls.writePktSize::2                    0                       # Write request sizes (log2)
system.mem_ctrls.writePktSize::3                    0                       # Write request sizes (log2)
system.mem_ctrls.writePktSize::4                    0                       # Write request sizes (log2)
system.mem_ctrls.writePktSize::5                    0                       # Write request sizes (log2)
system.mem_ctrls.writePktSize::6                    0                       # Write request sizes (log2)
system.mem_ctrls.rdQLenPdf::0                       0                       # What read queue length does an incoming req see
system.mem_ctrls.rdQLenPdf::1                       0                       # What read queue length does an incoming req see
system.mem_ctrls.rdQLenPdf::2                       0                       # What read queue length does an incoming req see
system.mem_ctrls.rdQLenPdf::3                       0                       # What read queue length does an incoming req see
system.mem_ctrls.rdQLenPdf::4                       0                       # What read queue length does an incoming req see
system.mem_ctrls.rdQLenPdf::5                       0                       # What read queue length does an incoming req see
system.mem_ctrls.rdQLenPdf::6                       0                       # What read queue length does an incoming req see
system.mem_ctrls.rdQLenPdf::7                       0                       # What read queue length does an incoming req see
system.mem_ctrls.rdQLenPdf::8                       0                       # What read queue length does an incoming req see
system.mem_ctrls.rdQLenPdf::9                       0                       # What read queue length does an incoming req see
system.mem_ctrls.rdQLenPdf::10                      0                       # What read queue length does an incoming req see
system.mem_ctrls.rdQLenPdf::11                      0                       # What read queue length does an incoming req see
system.mem_ctrls.rdQLenPdf::12                      0                       # What read queue length does an incoming req see
system.mem_ctrls.rdQLenPdf::13                      0                       # What read queue length does an incoming req see
system.mem_ctrls.rdQLenPdf::14                      0                       # What read queue length does an incoming req see
system.mem_ctrls.rdQLenPdf::15                      0                       # What read queue length does an incoming req see
system.mem_ctrls.rdQLenPdf::16                      0                       # What read queue length does an incoming req see
system.mem_ctrls.rdQLenPdf::17                      0                       # What read queue length does an incoming req see
system.mem_ctrls.rdQLenPdf::18                      0                       # What read queue length does an incoming req see
system.mem_ctrls.rdQLenPdf::19                      0                       # What read queue length does an incoming req see
system.mem_ctrls.rdQLenPdf::20                      0                       # What read queue length does an incoming req see
system.mem_ctrls.rdQLenPdf::21                      0                       # What read queue length does an incoming req see
system.mem_ctrls.rdQLenPdf::22                      0                       # What read queue length does an incoming req see
system.mem_ctrls.rdQLenPdf::23                      0                       # What read queue length does an incoming req see
system.mem_ctrls.rdQLenPdf::24                      0                       # What read queue length does an incoming req see
system.mem_ctrls.rdQLenPdf::25                      0                       # What read queue length does an incoming req see
system.mem_ctrls.rdQLenPdf::26                      0                       # What read queue length does an incoming req see
system.mem_ctrls.rdQLenPdf::27                      0                       # What read queue length does an incoming req see
system.mem_ctrls.rdQLenPdf::28                      0                       # What read queue length does an incoming req see
system.mem_ctrls.rdQLenPdf::29                      0                       # What read queue length does an incoming req see
system.mem_ctrls.rdQLenPdf::30                      0                       # What read queue length does an incoming req see
system.mem_ctrls.rdQLenPdf::31                      0                       # What read queue length does an incoming req see
system.mem_ctrls.wrQLenPdf::0                       0                       # What write queue length does an incoming req see
system.mem_ctrls.wrQLenPdf::1                       0                       # What write queue length does an incoming req see
system.mem_ctrls.wrQLenPdf::2                       0                       # What write queue length does an incoming req see
system.mem_ctrls.wrQLenPdf::3                       0                       # What write queue length does an incoming req see
system.mem_ctrls.wrQLenPdf::4                       0                       # What write queue length does an incoming req see
system.mem_ctrls.wrQLenPdf::5                       0                       # What write queue length does an incoming req see
system.mem_ctrls.wrQLenPdf::6                       0                       # What write queue length does an incoming req see
system.mem_ctrls.wrQLenPdf::7                       0                       # What write queue length does an incoming req see
system.mem_ctrls.wrQLenPdf::8                       0                       # What write queue length does an incoming req see
system.mem_ctrls.wrQLenPdf::9                       0                       # What write queue length does an incoming req see
system.mem_ctrls.wrQLenPdf::10                      0                       # What write queue length does an incoming req see
system.mem_ctrls.wrQLenPdf::11                      0                       # What write queue length does an incoming req see
system.mem_ctrls.wrQLenPdf::12                      0                       # What write queue length does an incoming req see
system.mem_ctrls.wrQLenPdf::13                      0                       # What write queue length does an incoming req see
system.mem_ctrls.wrQLenPdf::14                      0                       # What write queue length does an incoming req see
system.mem_ctrls.wrQLenPdf::15                      0                       # What write queue length does an incoming req see
system.mem_ctrls.wrQLenPdf::16                      0                       # What write queue length does an incoming req see
system.mem_ctrls.wrQLenPdf::17                      0                       # What write queue length does an incoming req see
system.mem_ctrls.wrQLenPdf::18                      0                       # What write queue length does an incoming req see
system.mem_ctrls.wrQLenPdf::19                      0                       # What write queue length does an incoming req see
system.mem_ctrls.wrQLenPdf::20                      0                       # What write queue length does an incoming req see
system.mem_ctrls.wrQLenPdf::21                      0                       # What write queue length does an incoming req see
system.mem_ctrls.wrQLenPdf::22                      0                       # What write queue length does an incoming req see
system.mem_ctrls.wrQLenPdf::23                      0                       # What write queue length does an incoming req see
system.mem_ctrls.wrQLenPdf::24                      0                       # What write queue length does an incoming req see
system.mem_ctrls.wrQLenPdf::25                      0                       # What write queue length does an incoming req see
system.mem_ctrls.wrQLenPdf::26                      0                       # What write queue length does an incoming req see
system.mem_ctrls.wrQLenPdf::27                      0                       # What write queue length does an incoming req see
system.mem_ctrls.wrQLenPdf::28                      0                       # What write queue length does an incoming req see
system.mem_ctrls.wrQLenPdf::29                      0                       # What write queue length does an incoming req see
system.mem_ctrls.wrQLenPdf::30                      0                       # What write queue length does an incoming req see
system.mem_ctrls.wrQLenPdf::31                      0                       # What write queue length does an incoming req see
system.mem_ctrls.wrQLenPdf::32                      0                       # What write queue length does an incoming req see
system.mem_ctrls.wrQLenPdf::33                      0                       # What write queue length does an incoming req see
system.mem_ctrls.wrQLenPdf::34                      0                       # What write queue length does an incoming req see
system.mem_ctrls.wrQLenPdf::35                      0                       # What write queue length does an incoming req see
system.mem_ctrls.wrQLenPdf::36                      0                       # What write queue length does an incoming req see
system.mem_ctrls.wrQLenPdf::37                      0                       # What write queue length does an incoming req see
system.mem_ctrls.wrQLenPdf::38                      0                       # What write queue length does an incoming req see
system.mem_ctrls.wrQLenPdf::39                      0                       # What write queue length does an incoming req see
system.mem_ctrls.wrQLenPdf::40                      0                       # What write queue length does an incoming req see
system.mem_ctrls.wrQLenPdf::41                      0                       # What write queue length does an incoming req see
system.mem_ctrls.wrQLenPdf::42                      0                       # What write queue length does an incoming req see
system.mem_ctrls.wrQLenPdf::43                      0                       # What write queue length does an incoming req see
system.mem_ctrls.wrQLenPdf::44                      0                       # What write queue length does an incoming req see
system.mem_ctrls.wrQLenPdf::45                      0                       # What write queue length does an incoming req see
system.mem_ctrls.wrQLenPdf::46                      0                       # What write queue length does an incoming req see
system.mem_ctrls.wrQLenPdf::47                      0                       # What write queue length does an incoming req see
system.mem_ctrls.wrQLenPdf::48                      0                       # What write queue length does an incoming req see
system.mem_ctrls.wrQLenPdf::49                      0                       # What write queue length does an incoming req see
system.mem_ctrls.wrQLenPdf::50                      0                       # What write queue length does an incoming req see
system.mem_ctrls.wrQLenPdf::51                      0                       # What write queue length does an incoming req see
system.mem_ctrls.wrQLenPdf::52                      0                       # What write queue length does an incoming req see
system.mem_ctrls.wrQLenPdf::53                      0                       # What write queue length does an incoming req see
system.mem_ctrls.wrQLenPdf::54                      0                       # What write queue length does an incoming req see
system.mem_ctrls.wrQLenPdf::55                      0                       # What write queue length does an incoming req see
system.mem_ctrls.wrQLenPdf::56                      0                       # What write queue length does an incoming req see
system.mem_ctrls.wrQLenPdf::57                      0                       # What write queue length does an incoming req see
system.mem_ctrls.wrQLenPdf::58                      0                       # What write queue length does an incoming req see
system.mem_ctrls.wrQLenPdf::59                      0                       # What write queue length does an incoming req see
system.mem_ctrls.wrQLenPdf::60                      0                       # What write queue length does an incoming req see
system.mem_ctrls.wrQLenPdf::61                      0                       # What write queue length does an incoming req see
system.mem_ctrls.wrQLenPdf::62                      0                       # What write queue length does an incoming req see
system.mem_ctrls.wrQLenPdf::63                      0                       # What write queue length does an incoming req see
system.mem_ctrls.totQLat                            0                       # Total ticks spent queuing
system.mem_ctrls.totMemAccLat                       0                       # Total ticks spent from burst creation until serviced by the DRAM
system.mem_ctrls.totBusLat                          0                       # Total ticks spent in databus transfers
system.mem_ctrls.avgQLat                          nan                       # Average queueing delay per DRAM burst
system.mem_ctrls.avgBusLat                        nan                       # Average bus latency per DRAM burst
system.mem_ctrls.avgMemAccLat                     nan                       # Average memory access latency per DRAM burst
system.mem_ctrls.avgRdBW                         0.00                       # Average DRAM read bandwidth in MiByte/s
system.mem_ctrls.avgWrBW                         0.00                       # Average achieved write bandwidth in MiByte/s
system.mem_ctrls.avgRdBWSys                      0.00                       # Average system read bandwidth in MiByte/s
system.mem_ctrls.avgWrBWSys                      0.00                       # Average system write bandwidth in MiByte/s
system.mem_ctrls.peakBW                      12800.00                       # Theoretical peak bandwidth in MiByte/s
system.mem_ctrls.busUtil                         0.00                       # Data bus utilization in percentage
system.mem_ctrls.busUtilRead                     0.00                       # Data bus utilization in percentage for reads
system.mem_ctrls.busUtilWrite                    0.00                       # Data bus utilization in percentage for writes
system.mem_ctrls.avgRdQLen                       0.00                       # Average read queue length when enqueuing
system.mem_ctrls.avgWrQLen                       0.00                       # Average write queue length when enqueuing
system.mem_ctrls.readRowHits                        0                       # Number of row buffer hits during reads
system.mem_ctrls.writeRowHits                       0                       # Number of row buffer hits during writes
system.mem_ctrls.readRowHitRate                   nan                       # Row buffer hit rate for reads
system.mem_ctrls.writeRowHitRate                  nan                       # Row buffer hit rate for writes
system.mem_ctrls.avgGap                           nan                       # Average gap between requests
system.mem_ctrls.pageHitRate                      nan                       # Row buffer hit rate, read and write combined
system.mem_ctrls.memoryStateTime::IDLE   3046039212500                       # Time in different power states
system.mem_ctrls.memoryStateTime::REF    105227720000                       # Time in different power states
system.mem_ctrls.memoryStateTime::PRE_PDN            0                       # Time in different power states
system.mem_ctrls.memoryStateTime::ACT               0                       # Time in different power states
system.mem_ctrls.memoryStateTime::ACT_PDN            0                       # Time in different power states
system.mem_ctrls.actEnergy::0                       0                       # Energy for activate commands per rank (pJ)
system.mem_ctrls.actEnergy::1                       0                       # Energy for activate commands per rank (pJ)
system.mem_ctrls.preEnergy::0                       0                       # Energy for precharge commands per rank (pJ)
system.mem_ctrls.preEnergy::1                       0                       # Energy for precharge commands per rank (pJ)
system.mem_ctrls.readEnergy::0                      0                       # Energy for read commands per rank (pJ)
system.mem_ctrls.readEnergy::1                      0                       # Energy for read commands per rank (pJ)
system.mem_ctrls.writeEnergy::0                     0                       # Energy for write commands per rank (pJ)
system.mem_ctrls.writeEnergy::1                     0                       # Energy for write commands per rank (pJ)
system.mem_ctrls.refreshEnergy::0        205825420320                       # Energy for refresh commands per rank (pJ)
system.mem_ctrls.refreshEnergy::1        205825420320                       # Energy for refresh commands per rank (pJ)
system.mem_ctrls.actBackEnergy::0         68169350070                       # Energy for active background per rank (pJ)
system.mem_ctrls.actBackEnergy::1         68169350070                       # Energy for active background per rank (pJ)
system.mem_ctrls.preBackEnergy::0        1830962475750                       # Energy for precharge background per rank (pJ)
system.mem_ctrls.preBackEnergy::1        1830962475750                       # Energy for precharge background per rank (pJ)
system.mem_ctrls.totalEnergy::0          2104957246140                       # Total energy per rank (pJ)
system.mem_ctrls.totalEnergy::1          2104957246140                       # Total energy per rank (pJ)
system.mem_ctrls.averagePower::0           667.971740                       # Core power per rank (mW)
system.mem_ctrls.averagePower::1           667.971740                       # Core power per rank (mW)
system.membus.trans_dist::ReadReq             5158870                       # Transaction distribution
system.membus.trans_dist::ReadResp            5158870                       # Transaction distribution
system.membus.trans_dist::WriteReq              69863                       # Transaction distribution
system.membus.trans_dist::WriteResp             69863                       # Transaction distribution
system.membus.trans_dist::Writeback            544447                       # Transaction distribution
system.membus.trans_dist::WriteInvalidateReq        44256                       # Transaction distribution
system.membus.trans_dist::WriteInvalidateResp        44256                       # Transaction distribution
system.membus.trans_dist::UpgradeReq           124276                       # Transaction distribution
system.membus.trans_dist::SCUpgradeReq          82043                       # Transaction distribution
system.membus.trans_dist::UpgradeResp          206319                       # Transaction distribution
system.membus.trans_dist::ReadExReq            416061                       # Transaction distribution
system.membus.trans_dist::ReadExResp           416061                       # Transaction distribution
system.membus.pkt_count_system.iocache.mem_side::system.mem_ctrls.port        88930                       # Packet count per connected master and slave (bytes)
system.membus.pkt_count_system.iocache.mem_side::total        88930                       # Packet count per connected master and slave (bytes)
system.membus.pkt_count_system.cpu00.icache.mem_side::system.mem_ctrls.port      1248586                       # Packet count per connected master and slave (bytes)
system.membus.pkt_count_system.cpu00.icache.mem_side::total      1248586                       # Packet count per connected master and slave (bytes)
system.membus.pkt_count_system.cpu00.dcache.mem_side::system.bridge.slave        35464                       # Packet count per connected master and slave (bytes)
system.membus.pkt_count_system.cpu00.dcache.mem_side::system.mem_ctrls.port      5453778                       # Packet count per connected master and slave (bytes)
system.membus.pkt_count_system.cpu00.dcache.mem_side::total      5489242                       # Packet count per connected master and slave (bytes)
system.membus.pkt_count_system.cpu01.icache.mem_side::system.mem_ctrls.port       646682                       # Packet count per connected master and slave (bytes)
system.membus.pkt_count_system.cpu01.icache.mem_side::total       646682                       # Packet count per connected master and slave (bytes)
system.membus.pkt_count_system.cpu01.dcache.mem_side::system.bridge.slave        12908                       # Packet count per connected master and slave (bytes)
system.membus.pkt_count_system.cpu01.dcache.mem_side::system.mem_ctrls.port       864225                       # Packet count per connected master and slave (bytes)
system.membus.pkt_count_system.cpu01.dcache.mem_side::total       877133                       # Packet count per connected master and slave (bytes)
system.membus.pkt_count_system.cpu02.icache.mem_side::system.mem_ctrls.port       985202                       # Packet count per connected master and slave (bytes)
system.membus.pkt_count_system.cpu02.icache.mem_side::total       985202                       # Packet count per connected master and slave (bytes)
system.membus.pkt_count_system.cpu02.dcache.mem_side::system.bridge.slave        18222                       # Packet count per connected master and slave (bytes)
system.membus.pkt_count_system.cpu02.dcache.mem_side::system.mem_ctrls.port       863400                       # Packet count per connected master and slave (bytes)
system.membus.pkt_count_system.cpu02.dcache.mem_side::total       881622                       # Packet count per connected master and slave (bytes)
system.membus.pkt_count_system.cpu03.icache.mem_side::system.mem_ctrls.port       157432                       # Packet count per connected master and slave (bytes)
system.membus.pkt_count_system.cpu03.icache.mem_side::total       157432                       # Packet count per connected master and slave (bytes)
system.membus.pkt_count_system.cpu03.dcache.mem_side::system.bridge.slave         7330                       # Packet count per connected master and slave (bytes)
system.membus.pkt_count_system.cpu03.dcache.mem_side::system.mem_ctrls.port       205025                       # Packet count per connected master and slave (bytes)
system.membus.pkt_count_system.cpu03.dcache.mem_side::total       212355                       # Packet count per connected master and slave (bytes)
system.membus.pkt_count_system.cpu04.icache.mem_side::system.mem_ctrls.port        95032                       # Packet count per connected master and slave (bytes)
system.membus.pkt_count_system.cpu04.icache.mem_side::total        95032                       # Packet count per connected master and slave (bytes)
system.membus.pkt_count_system.cpu04.dcache.mem_side::system.bridge.slave         6958                       # Packet count per connected master and slave (bytes)
system.membus.pkt_count_system.cpu04.dcache.mem_side::system.mem_ctrls.port       196285                       # Packet count per connected master and slave (bytes)
system.membus.pkt_count_system.cpu04.dcache.mem_side::total       203243                       # Packet count per connected master and slave (bytes)
system.membus.pkt_count_system.cpu05.icache.mem_side::system.mem_ctrls.port        68770                       # Packet count per connected master and slave (bytes)
system.membus.pkt_count_system.cpu05.icache.mem_side::total        68770                       # Packet count per connected master and slave (bytes)
system.membus.pkt_count_system.cpu05.dcache.mem_side::system.bridge.slave         6756                       # Packet count per connected master and slave (bytes)
system.membus.pkt_count_system.cpu05.dcache.mem_side::system.mem_ctrls.port       142957                       # Packet count per connected master and slave (bytes)
system.membus.pkt_count_system.cpu05.dcache.mem_side::total       149713                       # Packet count per connected master and slave (bytes)
system.membus.pkt_count_system.cpu06.icache.mem_side::system.mem_ctrls.port        31474                       # Packet count per connected master and slave (bytes)
system.membus.pkt_count_system.cpu06.icache.mem_side::total        31474                       # Packet count per connected master and slave (bytes)
system.membus.pkt_count_system.cpu06.dcache.mem_side::system.bridge.slave         6720                       # Packet count per connected master and slave (bytes)
system.membus.pkt_count_system.cpu06.dcache.mem_side::system.mem_ctrls.port        93326                       # Packet count per connected master and slave (bytes)
system.membus.pkt_count_system.cpu06.dcache.mem_side::total       100046                       # Packet count per connected master and slave (bytes)
system.membus.pkt_count_system.cpu07.icache.mem_side::system.mem_ctrls.port        38540                       # Packet count per connected master and slave (bytes)
system.membus.pkt_count_system.cpu07.icache.mem_side::total        38540                       # Packet count per connected master and slave (bytes)
system.membus.pkt_count_system.cpu07.dcache.mem_side::system.bridge.slave         6746                       # Packet count per connected master and slave (bytes)
system.membus.pkt_count_system.cpu07.dcache.mem_side::system.mem_ctrls.port       117966                       # Packet count per connected master and slave (bytes)
system.membus.pkt_count_system.cpu07.dcache.mem_side::total       124712                       # Packet count per connected master and slave (bytes)
system.membus.pkt_count_system.cpu08.icache.mem_side::system.mem_ctrls.port        28404                       # Packet count per connected master and slave (bytes)
system.membus.pkt_count_system.cpu08.icache.mem_side::total        28404                       # Packet count per connected master and slave (bytes)
system.membus.pkt_count_system.cpu08.dcache.mem_side::system.bridge.slave         6712                       # Packet count per connected master and slave (bytes)
system.membus.pkt_count_system.cpu08.dcache.mem_side::system.mem_ctrls.port        87798                       # Packet count per connected master and slave (bytes)
system.membus.pkt_count_system.cpu08.dcache.mem_side::total        94510                       # Packet count per connected master and slave (bytes)
system.membus.pkt_count_system.cpu09.icache.mem_side::system.mem_ctrls.port        28384                       # Packet count per connected master and slave (bytes)
system.membus.pkt_count_system.cpu09.icache.mem_side::total        28384                       # Packet count per connected master and slave (bytes)
system.membus.pkt_count_system.cpu09.dcache.mem_side::system.bridge.slave         6712                       # Packet count per connected master and slave (bytes)
system.membus.pkt_count_system.cpu09.dcache.mem_side::system.mem_ctrls.port        84769                       # Packet count per connected master and slave (bytes)
system.membus.pkt_count_system.cpu09.dcache.mem_side::total        91481                       # Packet count per connected master and slave (bytes)
system.membus.pkt_count_system.cpu10.icache.mem_side::system.mem_ctrls.port        28376                       # Packet count per connected master and slave (bytes)
system.membus.pkt_count_system.cpu10.icache.mem_side::total        28376                       # Packet count per connected master and slave (bytes)
system.membus.pkt_count_system.cpu10.dcache.mem_side::system.bridge.slave         6714                       # Packet count per connected master and slave (bytes)
system.membus.pkt_count_system.cpu10.dcache.mem_side::system.mem_ctrls.port        83455                       # Packet count per connected master and slave (bytes)
system.membus.pkt_count_system.cpu10.dcache.mem_side::total        90169                       # Packet count per connected master and slave (bytes)
system.membus.pkt_count_system.cpu11.icache.mem_side::system.mem_ctrls.port        28322                       # Packet count per connected master and slave (bytes)
system.membus.pkt_count_system.cpu11.icache.mem_side::total        28322                       # Packet count per connected master and slave (bytes)
system.membus.pkt_count_system.cpu11.dcache.mem_side::system.bridge.slave         6710                       # Packet count per connected master and slave (bytes)
system.membus.pkt_count_system.cpu11.dcache.mem_side::system.mem_ctrls.port        81791                       # Packet count per connected master and slave (bytes)
system.membus.pkt_count_system.cpu11.dcache.mem_side::total        88501                       # Packet count per connected master and slave (bytes)
system.membus.pkt_count_system.cpu12.icache.mem_side::system.mem_ctrls.port        28314                       # Packet count per connected master and slave (bytes)
system.membus.pkt_count_system.cpu12.icache.mem_side::total        28314                       # Packet count per connected master and slave (bytes)
system.membus.pkt_count_system.cpu12.dcache.mem_side::system.bridge.slave         6710                       # Packet count per connected master and slave (bytes)
system.membus.pkt_count_system.cpu12.dcache.mem_side::system.mem_ctrls.port        80895                       # Packet count per connected master and slave (bytes)
system.membus.pkt_count_system.cpu12.dcache.mem_side::total        87605                       # Packet count per connected master and slave (bytes)
system.membus.pkt_count_system.cpu13.icache.mem_side::system.mem_ctrls.port        28336                       # Packet count per connected master and slave (bytes)
system.membus.pkt_count_system.cpu13.icache.mem_side::total        28336                       # Packet count per connected master and slave (bytes)
system.membus.pkt_count_system.cpu13.dcache.mem_side::system.bridge.slave         6706                       # Packet count per connected master and slave (bytes)
system.membus.pkt_count_system.cpu13.dcache.mem_side::system.mem_ctrls.port        79470                       # Packet count per connected master and slave (bytes)
system.membus.pkt_count_system.cpu13.dcache.mem_side::total        86176                       # Packet count per connected master and slave (bytes)
system.membus.pkt_count_system.cpu14.icache.mem_side::system.mem_ctrls.port        28322                       # Packet count per connected master and slave (bytes)
system.membus.pkt_count_system.cpu14.icache.mem_side::total        28322                       # Packet count per connected master and slave (bytes)
system.membus.pkt_count_system.cpu14.dcache.mem_side::system.bridge.slave         6706                       # Packet count per connected master and slave (bytes)
system.membus.pkt_count_system.cpu14.dcache.mem_side::system.mem_ctrls.port        78167                       # Packet count per connected master and slave (bytes)
system.membus.pkt_count_system.cpu14.dcache.mem_side::total        84873                       # Packet count per connected master and slave (bytes)
system.membus.pkt_count_system.cpu15.icache.mem_side::system.mem_ctrls.port        28512                       # Packet count per connected master and slave (bytes)
system.membus.pkt_count_system.cpu15.icache.mem_side::total        28512                       # Packet count per connected master and slave (bytes)
system.membus.pkt_count_system.cpu15.dcache.mem_side::system.bridge.slave         6704                       # Packet count per connected master and slave (bytes)
system.membus.pkt_count_system.cpu15.dcache.mem_side::system.mem_ctrls.port        79482                       # Packet count per connected master and slave (bytes)
system.membus.pkt_count_system.cpu15.dcache.mem_side::total        86186                       # Packet count per connected master and slave (bytes)
system.membus.pkt_count::total               12335185                       # Packet count per connected master and slave (bytes)
system.membus.pkt_size_system.iocache.mem_side::system.mem_ctrls.port      2845760                       # Cumulative packet size per connected master and slave (bytes)
system.membus.pkt_size_system.iocache.mem_side::total      2845760                       # Cumulative packet size per connected master and slave (bytes)
system.membus.pkt_size_system.cpu00.icache.mem_side::system.mem_ctrls.port     39954752                       # Cumulative packet size per connected master and slave (bytes)
system.membus.pkt_size_system.cpu00.icache.mem_side::total     39954752                       # Cumulative packet size per connected master and slave (bytes)
system.membus.pkt_size_system.cpu00.dcache.mem_side::system.bridge.slave        74644                       # Cumulative packet size per connected master and slave (bytes)
system.membus.pkt_size_system.cpu00.dcache.mem_side::system.mem_ctrls.port    181762816                       # Cumulative packet size per connected master and slave (bytes)
system.membus.pkt_size_system.cpu00.dcache.mem_side::total    181837460                       # Cumulative packet size per connected master and slave (bytes)
system.membus.pkt_size_system.cpu01.icache.mem_side::system.mem_ctrls.port     20693824                       # Cumulative packet size per connected master and slave (bytes)
system.membus.pkt_size_system.cpu01.icache.mem_side::total     20693824                       # Cumulative packet size per connected master and slave (bytes)
system.membus.pkt_size_system.cpu01.dcache.mem_side::system.bridge.slave        51632                       # Cumulative packet size per connected master and slave (bytes)
system.membus.pkt_size_system.cpu01.dcache.mem_side::system.mem_ctrls.port     26217920                       # Cumulative packet size per connected master and slave (bytes)
system.membus.pkt_size_system.cpu01.dcache.mem_side::total     26269552                       # Cumulative packet size per connected master and slave (bytes)
system.membus.pkt_size_system.cpu02.icache.mem_side::system.mem_ctrls.port     31526464                       # Cumulative packet size per connected master and slave (bytes)
system.membus.pkt_size_system.cpu02.icache.mem_side::total     31526464                       # Cumulative packet size per connected master and slave (bytes)
system.membus.pkt_size_system.cpu02.dcache.mem_side::system.bridge.slave        47096                       # Cumulative packet size per connected master and slave (bytes)
system.membus.pkt_size_system.cpu02.dcache.mem_side::system.mem_ctrls.port     28186560                       # Cumulative packet size per connected master and slave (bytes)
system.membus.pkt_size_system.cpu02.dcache.mem_side::total     28233656                       # Cumulative packet size per connected master and slave (bytes)
system.membus.pkt_size_system.cpu03.icache.mem_side::system.mem_ctrls.port      5037824                       # Cumulative packet size per connected master and slave (bytes)
system.membus.pkt_size_system.cpu03.icache.mem_side::total      5037824                       # Cumulative packet size per connected master and slave (bytes)
system.membus.pkt_size_system.cpu03.dcache.mem_side::system.bridge.slave        28632                       # Cumulative packet size per connected master and slave (bytes)
system.membus.pkt_size_system.cpu03.dcache.mem_side::system.mem_ctrls.port      6360640                       # Cumulative packet size per connected master and slave (bytes)
system.membus.pkt_size_system.cpu03.dcache.mem_side::total      6389272                       # Cumulative packet size per connected master and slave (bytes)
system.membus.pkt_size_system.cpu04.icache.mem_side::system.mem_ctrls.port      3041024                       # Cumulative packet size per connected master and slave (bytes)
system.membus.pkt_size_system.cpu04.icache.mem_side::total      3041024                       # Cumulative packet size per connected master and slave (bytes)
system.membus.pkt_size_system.cpu04.dcache.mem_side::system.bridge.slave        27368                       # Cumulative packet size per connected master and slave (bytes)
system.membus.pkt_size_system.cpu04.dcache.mem_side::system.mem_ctrls.port      6552384                       # Cumulative packet size per connected master and slave (bytes)
system.membus.pkt_size_system.cpu04.dcache.mem_side::total      6579752                       # Cumulative packet size per connected master and slave (bytes)
system.membus.pkt_size_system.cpu05.icache.mem_side::system.mem_ctrls.port      2200640                       # Cumulative packet size per connected master and slave (bytes)
system.membus.pkt_size_system.cpu05.icache.mem_side::total      2200640                       # Cumulative packet size per connected master and slave (bytes)
system.membus.pkt_size_system.cpu05.dcache.mem_side::system.bridge.slave        27003                       # Cumulative packet size per connected master and slave (bytes)
system.membus.pkt_size_system.cpu05.dcache.mem_side::system.mem_ctrls.port      4592064                       # Cumulative packet size per connected master and slave (bytes)
system.membus.pkt_size_system.cpu05.dcache.mem_side::total      4619067                       # Cumulative packet size per connected master and slave (bytes)
system.membus.pkt_size_system.cpu06.icache.mem_side::system.mem_ctrls.port      1007168                       # Cumulative packet size per connected master and slave (bytes)
system.membus.pkt_size_system.cpu06.icache.mem_side::total      1007168                       # Cumulative packet size per connected master and slave (bytes)
system.membus.pkt_size_system.cpu06.dcache.mem_side::system.bridge.slave        26880                       # Cumulative packet size per connected master and slave (bytes)
system.membus.pkt_size_system.cpu06.dcache.mem_side::system.mem_ctrls.port      2753280                       # Cumulative packet size per connected master and slave (bytes)
system.membus.pkt_size_system.cpu06.dcache.mem_side::total      2780160                       # Cumulative packet size per connected master and slave (bytes)
system.membus.pkt_size_system.cpu07.icache.mem_side::system.mem_ctrls.port      1233280                       # Cumulative packet size per connected master and slave (bytes)
system.membus.pkt_size_system.cpu07.icache.mem_side::total      1233280                       # Cumulative packet size per connected master and slave (bytes)
system.membus.pkt_size_system.cpu07.dcache.mem_side::system.bridge.slave        26984                       # Cumulative packet size per connected master and slave (bytes)
system.membus.pkt_size_system.cpu07.dcache.mem_side::system.mem_ctrls.port      3748416                       # Cumulative packet size per connected master and slave (bytes)
system.membus.pkt_size_system.cpu07.dcache.mem_side::total      3775400                       # Cumulative packet size per connected master and slave (bytes)
system.membus.pkt_size_system.cpu08.icache.mem_side::system.mem_ctrls.port       908928                       # Cumulative packet size per connected master and slave (bytes)
system.membus.pkt_size_system.cpu08.icache.mem_side::total       908928                       # Cumulative packet size per connected master and slave (bytes)
system.membus.pkt_size_system.cpu08.dcache.mem_side::system.bridge.slave        26848                       # Cumulative packet size per connected master and slave (bytes)
system.membus.pkt_size_system.cpu08.dcache.mem_side::system.mem_ctrls.port      2583360                       # Cumulative packet size per connected master and slave (bytes)
system.membus.pkt_size_system.cpu08.dcache.mem_side::total      2610208                       # Cumulative packet size per connected master and slave (bytes)
system.membus.pkt_size_system.cpu09.icache.mem_side::system.mem_ctrls.port       908288                       # Cumulative packet size per connected master and slave (bytes)
system.membus.pkt_size_system.cpu09.icache.mem_side::total       908288                       # Cumulative packet size per connected master and slave (bytes)
system.membus.pkt_size_system.cpu09.dcache.mem_side::system.bridge.slave        26848                       # Cumulative packet size per connected master and slave (bytes)
system.membus.pkt_size_system.cpu09.dcache.mem_side::system.mem_ctrls.port      2470784                       # Cumulative packet size per connected master and slave (bytes)
system.membus.pkt_size_system.cpu09.dcache.mem_side::total      2497632                       # Cumulative packet size per connected master and slave (bytes)
system.membus.pkt_size_system.cpu10.icache.mem_side::system.mem_ctrls.port       908032                       # Cumulative packet size per connected master and slave (bytes)
system.membus.pkt_size_system.cpu10.icache.mem_side::total       908032                       # Cumulative packet size per connected master and slave (bytes)
system.membus.pkt_size_system.cpu10.dcache.mem_side::system.bridge.slave        26856                       # Cumulative packet size per connected master and slave (bytes)
system.membus.pkt_size_system.cpu10.dcache.mem_side::system.mem_ctrls.port      2429120                       # Cumulative packet size per connected master and slave (bytes)
system.membus.pkt_size_system.cpu10.dcache.mem_side::total      2455976                       # Cumulative packet size per connected master and slave (bytes)
system.membus.pkt_size_system.cpu11.icache.mem_side::system.mem_ctrls.port       906304                       # Cumulative packet size per connected master and slave (bytes)
system.membus.pkt_size_system.cpu11.icache.mem_side::total       906304                       # Cumulative packet size per connected master and slave (bytes)
system.membus.pkt_size_system.cpu11.dcache.mem_side::system.bridge.slave        26840                       # Cumulative packet size per connected master and slave (bytes)
system.membus.pkt_size_system.cpu11.dcache.mem_side::system.mem_ctrls.port      2376640                       # Cumulative packet size per connected master and slave (bytes)
system.membus.pkt_size_system.cpu11.dcache.mem_side::total      2403480                       # Cumulative packet size per connected master and slave (bytes)
system.membus.pkt_size_system.cpu12.icache.mem_side::system.mem_ctrls.port       906048                       # Cumulative packet size per connected master and slave (bytes)
system.membus.pkt_size_system.cpu12.icache.mem_side::total       906048                       # Cumulative packet size per connected master and slave (bytes)
system.membus.pkt_size_system.cpu12.dcache.mem_side::system.bridge.slave        26840                       # Cumulative packet size per connected master and slave (bytes)
system.membus.pkt_size_system.cpu12.dcache.mem_side::system.mem_ctrls.port      2349952                       # Cumulative packet size per connected master and slave (bytes)
system.membus.pkt_size_system.cpu12.dcache.mem_side::total      2376792                       # Cumulative packet size per connected master and slave (bytes)
system.membus.pkt_size_system.cpu13.icache.mem_side::system.mem_ctrls.port       906752                       # Cumulative packet size per connected master and slave (bytes)
system.membus.pkt_size_system.cpu13.icache.mem_side::total       906752                       # Cumulative packet size per connected master and slave (bytes)
system.membus.pkt_size_system.cpu13.dcache.mem_side::system.bridge.slave        26824                       # Cumulative packet size per connected master and slave (bytes)
system.membus.pkt_size_system.cpu13.dcache.mem_side::system.mem_ctrls.port      2286016                       # Cumulative packet size per connected master and slave (bytes)
system.membus.pkt_size_system.cpu13.dcache.mem_side::total      2312840                       # Cumulative packet size per connected master and slave (bytes)
system.membus.pkt_size_system.cpu14.icache.mem_side::system.mem_ctrls.port       906304                       # Cumulative packet size per connected master and slave (bytes)
system.membus.pkt_size_system.cpu14.icache.mem_side::total       906304                       # Cumulative packet size per connected master and slave (bytes)
system.membus.pkt_size_system.cpu14.dcache.mem_side::system.bridge.slave        26824                       # Cumulative packet size per connected master and slave (bytes)
system.membus.pkt_size_system.cpu14.dcache.mem_side::system.mem_ctrls.port      2244928                       # Cumulative packet size per connected master and slave (bytes)
system.membus.pkt_size_system.cpu14.dcache.mem_side::total      2271752                       # Cumulative packet size per connected master and slave (bytes)
system.membus.pkt_size_system.cpu15.icache.mem_side::system.mem_ctrls.port       912384                       # Cumulative packet size per connected master and slave (bytes)
system.membus.pkt_size_system.cpu15.icache.mem_side::total       912384                       # Cumulative packet size per connected master and slave (bytes)
system.membus.pkt_size_system.cpu15.dcache.mem_side::system.bridge.slave        26816                       # Cumulative packet size per connected master and slave (bytes)
system.membus.pkt_size_system.cpu15.dcache.mem_side::system.mem_ctrls.port      2272256                       # Cumulative packet size per connected master and slave (bytes)
system.membus.pkt_size_system.cpu15.dcache.mem_side::total      2299072                       # Cumulative packet size per connected master and slave (bytes)
system.membus.pkt_size::total               394515847                       # Cumulative packet size per connected master and slave (bytes)
system.membus.snoops                                0                       # Total snoops (count)
system.membus.snoop_fanout::samples           6362427                       # Request fanout histogram
system.membus.snoop_fanout::mean                   32                       # Request fanout histogram
system.membus.snoop_fanout::stdev                   0                       # Request fanout histogram
system.membus.snoop_fanout::underflows              0      0.00%      0.00% # Request fanout histogram
system.membus.snoop_fanout::0                       0      0.00%      0.00% # Request fanout histogram
system.membus.snoop_fanout::1                       0      0.00%      0.00% # Request fanout histogram
system.membus.snoop_fanout::2                       0      0.00%      0.00% # Request fanout histogram
system.membus.snoop_fanout::3                       0      0.00%      0.00% # Request fanout histogram
system.membus.snoop_fanout::4                       0      0.00%      0.00% # Request fanout histogram
system.membus.snoop_fanout::5                       0      0.00%      0.00% # Request fanout histogram
system.membus.snoop_fanout::6                       0      0.00%      0.00% # Request fanout histogram
system.membus.snoop_fanout::7                       0      0.00%      0.00% # Request fanout histogram
system.membus.snoop_fanout::8                       0      0.00%      0.00% # Request fanout histogram
system.membus.snoop_fanout::9                       0      0.00%      0.00% # Request fanout histogram
system.membus.snoop_fanout::10                      0      0.00%      0.00% # Request fanout histogram
system.membus.snoop_fanout::11                      0      0.00%      0.00% # Request fanout histogram
system.membus.snoop_fanout::12                      0      0.00%      0.00% # Request fanout histogram
system.membus.snoop_fanout::13                      0      0.00%      0.00% # Request fanout histogram
system.membus.snoop_fanout::14                      0      0.00%      0.00% # Request fanout histogram
system.membus.snoop_fanout::15                      0      0.00%      0.00% # Request fanout histogram
system.membus.snoop_fanout::16                      0      0.00%      0.00% # Request fanout histogram
system.membus.snoop_fanout::17                      0      0.00%      0.00% # Request fanout histogram
system.membus.snoop_fanout::18                      0      0.00%      0.00% # Request fanout histogram
system.membus.snoop_fanout::19                      0      0.00%      0.00% # Request fanout histogram
system.membus.snoop_fanout::20                      0      0.00%      0.00% # Request fanout histogram
system.membus.snoop_fanout::21                      0      0.00%      0.00% # Request fanout histogram
system.membus.snoop_fanout::22                      0      0.00%      0.00% # Request fanout histogram
system.membus.snoop_fanout::23                      0      0.00%      0.00% # Request fanout histogram
system.membus.snoop_fanout::24                      0      0.00%      0.00% # Request fanout histogram
system.membus.snoop_fanout::25                      0      0.00%      0.00% # Request fanout histogram
system.membus.snoop_fanout::26                      0      0.00%      0.00% # Request fanout histogram
system.membus.snoop_fanout::27                      0      0.00%      0.00% # Request fanout histogram
system.membus.snoop_fanout::28                      0      0.00%      0.00% # Request fanout histogram
system.membus.snoop_fanout::29                      0      0.00%      0.00% # Request fanout histogram
system.membus.snoop_fanout::30                      0      0.00%      0.00% # Request fanout histogram
[...]
system.cpu15.op_class::SimdFloatSqrt                0      0.00%     58.98% # Class of executed instruction
system.cpu15.op_class::MemRead                   3027     24.08%     83.06% # Class of executed instruction
system.cpu15.op_class::MemWrite                  1512     12.03%     95.09% # Class of executed instruction
system.cpu15.op_class::IprAccess                  617      4.91%    100.00% # Class of executed instruction
system.cpu15.op_class::InstPrefetch                 0      0.00%    100.00% # Class of executed instruction
system.cpu15.op_class::total                    12569                       # Class of executed instruction
system.cpu15.kern.inst.arm                          0                       # number of arm instructions executed
system.cpu15.kern.inst.quiesce                      9                       # number of quiesce instructions executed
system.cpu15.kern.inst.hwrei                      150                       # number of hwrei instructions executed
system.cpu15.kern.ipl_count::0                     34     25.37%     25.37% # number of times we switched to this ipl
system.cpu15.kern.ipl_count::22                     8      5.97%     31.34% # number of times we switched to this ipl
system.cpu15.kern.ipl_count::30                     2      1.49%     32.84% # number of times we switched to this ipl
system.cpu15.kern.ipl_count::31                    90     67.16%    100.00% # number of times we switched to this ipl
system.cpu15.kern.ipl_count::total                134                       # number of times we switched to this ipl
system.cpu15.kern.ipl_good::0                      34     43.59%     43.59% # number of times we switched to this ipl from a different ipl
system.cpu15.kern.ipl_good::22                      8     10.26%     53.85% # number of times we switched to this ipl from a different ipl
system.cpu15.kern.ipl_good::30                      2      2.56%     56.41% # number of times we switched to this ipl from a different ipl
system.cpu15.kern.ipl_good::31                     34     43.59%    100.00% # number of times we switched to this ipl from a different ipl
system.cpu15.kern.ipl_good::total                  78                       # number of times we switched to this ipl from a different ipl
system.cpu15.kern.ipl_ticks::0             7713070000     98.75%     98.75% # number of cycles we spent at this ipl
system.cpu15.kern.ipl_ticks::22               7840000      0.10%     98.85% # number of cycles we spent at this ipl
system.cpu15.kern.ipl_ticks::30               3900000      0.05%     98.90% # number of cycles we spent at this ipl
system.cpu15.kern.ipl_ticks::31              86280000      1.10%    100.00% # number of cycles we spent at this ipl
system.cpu15.kern.ipl_ticks::total         7811090000                       # number of cycles we spent at this ipl
system.cpu15.kern.ipl_used::0                       1                       # fraction of swpipl calls that actually changed the ipl
system.cpu15.kern.ipl_used::22                      1                       # fraction of swpipl calls that actually changed the ipl
system.cpu15.kern.ipl_used::30                      1                       # fraction of swpipl calls that actually changed the ipl
system.cpu15.kern.ipl_used::31               0.377778                       # fraction of swpipl calls that actually changed the ipl
system.cpu15.kern.ipl_used::total            0.582090                       # fraction of swpipl calls that actually changed the ipl
system.cpu15.kern.callpal::swpipl                 116     82.27%     82.27% # number of callpals executed
system.cpu15.kern.callpal::rdps                    16     11.35%     93.62% # number of callpals executed
system.cpu15.kern.callpal::rti                      9      6.38%    100.00% # number of callpals executed
system.cpu15.kern.callpal::total                  141                       # number of callpals executed
system.cpu15.kern.mode_switch::kernel               9                       # number of protection mode switches
system.cpu15.kern.mode_switch::user                 0                       # number of protection mode switches
system.cpu15.kern.mode_switch::idle                 0                       # number of protection mode switches
system.cpu15.kern.mode_good::kernel                 0                      
system.cpu15.kern.mode_good::user                   0                      
system.cpu15.kern.mode_good::idle                   0                      
system.cpu15.kern.mode_switch_good::kernel            0                       # fraction of useful protection mode switches
system.cpu15.kern.mode_switch_good::user          nan                       # fraction of useful protection mode switches
system.cpu15.kern.mode_switch_good::idle          nan                       # fraction of useful protection mode switches
system.cpu15.kern.mode_switch_good::total            0                       # fraction of useful protection mode switches
system.cpu15.kern.mode_ticks::kernel                0                       # number of ticks spent at the given mode
system.cpu15.kern.mode_ticks::user                  0                       # number of ticks spent at the given mode
system.cpu15.kern.mode_ticks::idle                  0                       # number of ticks spent at the given mode
system.cpu15.kern.swap_context                      0                       # number of times the context was actually changed
system.cpu15.icache.tags.replacements              12                       # number of replacements
system.cpu15.icache.tags.tagsinuse                512                       # Cycle average of tags in use
system.cpu15.icache.tags.total_refs           1420536                       # Total number of references to valid blocks.
system.cpu15.icache.tags.sampled_refs             524                       # Sample count of references to valid blocks.
system.cpu15.icache.tags.avg_refs         2710.946565                       # Average number of references to valid blocks.
system.cpu15.icache.tags.warmup_cycle               0                       # Cycle when the warmup percentage was hit.
system.cpu15.icache.tags.occ_blocks::cpu15.inst          512                       # Average occupied blocks per requestor
system.cpu15.icache.tags.occ_percent::cpu15.inst            1                       # Average percentage of cache occupancy
system.cpu15.icache.tags.occ_percent::total            1                       # Average percentage of cache occupancy
system.cpu15.icache.tags.occ_task_id_blocks::1024          512                       # Occupied blocks per task id
system.cpu15.icache.tags.age_task_id_blocks_1024::2            1                       # Occupied blocks per task id
system.cpu15.icache.tags.age_task_id_blocks_1024::3            8                       # Occupied blocks per task id
system.cpu15.icache.tags.age_task_id_blocks_1024::4          503                       # Occupied blocks per task id
system.cpu15.icache.tags.occ_task_id_percent::1024            1                       # Percentage of cache occupancy per task id
system.cpu15.icache.tags.tag_accesses           25150                       # Number of tag accesses
system.cpu15.icache.tags.data_accesses          25150                       # Number of data accesses
system.cpu15.icache.ReadReq_hits::cpu15.inst        12557                       # number of ReadReq hits
system.cpu15.icache.ReadReq_hits::total         12557                       # number of ReadReq hits
system.cpu15.icache.demand_hits::cpu15.inst        12557                       # number of demand (read+write) hits
system.cpu15.icache.demand_hits::total          12557                       # number of demand (read+write) hits
system.cpu15.icache.overall_hits::cpu15.inst        12557                       # number of overall hits
system.cpu15.icache.overall_hits::total         12557                       # number of overall hits
system.cpu15.icache.ReadReq_misses::cpu15.inst           12                       # number of ReadReq misses
system.cpu15.icache.ReadReq_misses::total           12                       # number of ReadReq misses
system.cpu15.icache.demand_misses::cpu15.inst           12                       # number of demand (read+write) misses
system.cpu15.icache.demand_misses::total           12                       # number of demand (read+write) misses
system.cpu15.icache.overall_misses::cpu15.inst           12                       # number of overall misses
system.cpu15.icache.overall_misses::total           12                       # number of overall misses
system.cpu15.icache.ReadReq_accesses::cpu15.inst        12569                       # number of ReadReq accesses(hits+misses)
system.cpu15.icache.ReadReq_accesses::total        12569                       # number of ReadReq accesses(hits+misses)
system.cpu15.icache.demand_accesses::cpu15.inst        12569                       # number of demand (read+write) accesses
system.cpu15.icache.demand_accesses::total        12569                       # number of demand (read+write) accesses
system.cpu15.icache.overall_accesses::cpu15.inst        12569                       # number of overall (read+write) accesses
system.cpu15.icache.overall_accesses::total        12569                       # number of overall (read+write) accesses
system.cpu15.icache.ReadReq_miss_rate::cpu15.inst     0.000955                       # miss rate for ReadReq accesses
system.cpu15.icache.ReadReq_miss_rate::total     0.000955                       # miss rate for ReadReq accesses
system.cpu15.icache.demand_miss_rate::cpu15.inst     0.000955                       # miss rate for demand accesses
system.cpu15.icache.demand_miss_rate::total     0.000955                       # miss rate for demand accesses
system.cpu15.icache.overall_miss_rate::cpu15.inst     0.000955                       # miss rate for overall accesses
system.cpu15.icache.overall_miss_rate::total     0.000955                       # miss rate for overall accesses
system.cpu15.icache.blocked_cycles::no_mshrs            0                       # number of cycles access was blocked
system.cpu15.icache.blocked_cycles::no_targets            0                       # number of cycles access was blocked
system.cpu15.icache.blocked::no_mshrs               0                       # number of cycles access was blocked
system.cpu15.icache.blocked::no_targets             0                       # number of cycles access was blocked
system.cpu15.icache.avg_blocked_cycles::no_mshrs          nan                       # average number of cycles each access was blocked
system.cpu15.icache.avg_blocked_cycles::no_targets          nan                       # average number of cycles each access was blocked
system.cpu15.icache.fast_writes                     0                       # number of fast writes performed
system.cpu15.icache.cache_copies                    0                       # number of cache copies performed
system.cpu15.icache.no_allocate_misses              0                       # Number of misses that were no-allocate
system.cpu15.dcache.tags.replacements               3                       # number of replacements
system.cpu15.dcache.tags.tagsinuse         814.215478                       # Cycle average of tags in use
system.cpu15.dcache.tags.total_refs            181008                       # Total number of references to valid blocks.
system.cpu15.dcache.tags.sampled_refs             796                       # Sample count of references to valid blocks.
system.cpu15.dcache.tags.avg_refs          227.396985                       # Average number of references to valid blocks.
system.cpu15.dcache.tags.warmup_cycle               0                       # Cycle when the warmup percentage was hit.
system.cpu15.dcache.tags.occ_blocks::cpu15.data   814.215478                       # Average occupied blocks per requestor
system.cpu15.dcache.tags.occ_percent::cpu15.data     0.795132                       # Average percentage of cache occupancy
system.cpu15.dcache.tags.occ_percent::total     0.795132                       # Average percentage of cache occupancy
system.cpu15.dcache.tags.occ_task_id_blocks::1024          793                       # Occupied blocks per task id
system.cpu15.dcache.tags.age_task_id_blocks_1024::2            1                       # Occupied blocks per task id
system.cpu15.dcache.tags.age_task_id_blocks_1024::3           14                       # Occupied blocks per task id
system.cpu15.dcache.tags.age_task_id_blocks_1024::4          778                       # Occupied blocks per task id
system.cpu15.dcache.tags.occ_task_id_percent::1024     0.774414                       # Percentage of cache occupancy per task id
system.cpu15.dcache.tags.tag_accesses            8942                       # Number of tag accesses
system.cpu15.dcache.tags.data_accesses           8942                       # Number of data accesses
system.cpu15.dcache.ReadReq_hits::cpu15.data         2803                       # number of ReadReq hits
system.cpu15.dcache.ReadReq_hits::total          2803                       # number of ReadReq hits
system.cpu15.dcache.WriteReq_hits::cpu15.data         1416                       # number of WriteReq hits
system.cpu15.dcache.WriteReq_hits::total         1416                       # number of WriteReq hits
system.cpu15.dcache.LoadLockedReq_hits::cpu15.data           55                       # number of LoadLockedReq hits
system.cpu15.dcache.LoadLockedReq_hits::total           55                       # number of LoadLockedReq hits
system.cpu15.dcache.StoreCondReq_hits::cpu15.data           22                       # number of StoreCondReq hits
system.cpu15.dcache.StoreCondReq_hits::total           22                       # number of StoreCondReq hits
system.cpu15.dcache.demand_hits::cpu15.data         4219                       # number of demand (read+write) hits
system.cpu15.dcache.demand_hits::total           4219                       # number of demand (read+write) hits
system.cpu15.dcache.overall_hits::cpu15.data         4219                       # number of overall hits
system.cpu15.dcache.overall_hits::total          4219                       # number of overall hits
system.cpu15.dcache.ReadReq_misses::cpu15.data           90                       # number of ReadReq misses
system.cpu15.dcache.ReadReq_misses::total           90                       # number of ReadReq misses
system.cpu15.dcache.WriteReq_misses::cpu15.data           19                       # number of WriteReq misses
system.cpu15.dcache.WriteReq_misses::total           19                       # number of WriteReq misses
system.cpu15.dcache.LoadLockedReq_misses::cpu15.data            5                       # number of LoadLockedReq misses
system.cpu15.dcache.LoadLockedReq_misses::total            5                       # number of LoadLockedReq misses
system.cpu15.dcache.StoreCondReq_misses::cpu15.data           12                       # number of StoreCondReq misses
system.cpu15.dcache.StoreCondReq_misses::total           12                       # number of StoreCondReq misses
system.cpu15.dcache.demand_misses::cpu15.data          109                       # number of demand (read+write) misses
system.cpu15.dcache.demand_misses::total          109                       # number of demand (read+write) misses
system.cpu15.dcache.overall_misses::cpu15.data          109                       # number of overall misses
system.cpu15.dcache.overall_misses::total          109                       # number of overall misses
system.cpu15.dcache.ReadReq_accesses::cpu15.data         2893                       # number of ReadReq accesses(hits+misses)
system.cpu15.dcache.ReadReq_accesses::total         2893                       # number of ReadReq accesses(hits+misses)
system.cpu15.dcache.WriteReq_accesses::cpu15.data         1435                       # number of WriteReq accesses(hits+misses)
system.cpu15.dcache.WriteReq_accesses::total         1435                       # number of WriteReq accesses(hits+misses)
system.cpu15.dcache.LoadLockedReq_accesses::cpu15.data           60                       # number of LoadLockedReq accesses(hits+misses)
system.cpu15.dcache.LoadLockedReq_accesses::total           60                       # number of LoadLockedReq accesses(hits+misses)
system.cpu15.dcache.StoreCondReq_accesses::cpu15.data           34                       # number of StoreCondReq accesses(hits+misses)
system.cpu15.dcache.StoreCondReq_accesses::total           34                       # number of StoreCondReq accesses(hits+misses)
system.cpu15.dcache.demand_accesses::cpu15.data         4328                       # number of demand (read+write) accesses
system.cpu15.dcache.demand_accesses::total         4328                       # number of demand (read+write) accesses
system.cpu15.dcache.overall_accesses::cpu15.data         4328                       # number of overall (read+write) accesses
system.cpu15.dcache.overall_accesses::total         4328                       # number of overall (read+write) accesses
system.cpu15.dcache.ReadReq_miss_rate::cpu15.data     0.031110                       # miss rate for ReadReq accesses
system.cpu15.dcache.ReadReq_miss_rate::total     0.031110                       # miss rate for ReadReq accesses
system.cpu15.dcache.WriteReq_miss_rate::cpu15.data     0.013240                       # miss rate for WriteReq accesses
system.cpu15.dcache.WriteReq_miss_rate::total     0.013240                       # miss rate for WriteReq accesses
system.cpu15.dcache.LoadLockedReq_miss_rate::cpu15.data     0.083333                       # miss rate for LoadLockedReq accesses
system.cpu15.dcache.LoadLockedReq_miss_rate::total     0.083333                       # miss rate for LoadLockedReq accesses
system.cpu15.dcache.StoreCondReq_miss_rate::cpu15.data     0.352941                       # miss rate for StoreCondReq accesses
system.cpu15.dcache.StoreCondReq_miss_rate::total     0.352941                       # miss rate for StoreCondReq accesses
system.cpu15.dcache.demand_miss_rate::cpu15.data     0.025185                       # miss rate for demand accesses
system.cpu15.dcache.demand_miss_rate::total     0.025185                       # miss rate for demand accesses
system.cpu15.dcache.overall_miss_rate::cpu15.data     0.025185                       # miss rate for overall accesses
system.cpu15.dcache.overall_miss_rate::total     0.025185                       # miss rate for overall accesses
system.cpu15.dcache.blocked_cycles::no_mshrs            0                       # number of cycles access was blocked
system.cpu15.dcache.blocked_cycles::no_targets            0                       # number of cycles access was blocked
system.cpu15.dcache.blocked::no_mshrs               0                       # number of cycles access was blocked
system.cpu15.dcache.blocked::no_targets             0                       # number of cycles access was blocked
system.cpu15.dcache.avg_blocked_cycles::no_mshrs          nan                       # average number of cycles each access was blocked
system.cpu15.dcache.avg_blocked_cycles::no_targets          nan                       # average number of cycles each access was blocked
system.cpu15.dcache.fast_writes                     0                       # number of fast writes performed
system.cpu15.dcache.cache_copies                    0                       # number of cache copies performed
system.cpu15.dcache.writebacks::writebacks            2                       # number of writebacks
system.cpu15.dcache.writebacks::total               2                       # number of writebacks
system.cpu15.dcache.no_allocate_misses              0                       # Number of misses that were no-allocate

---------- End Simulation Statistics   ----------
