
---------- Begin Simulation Statistics ----------
sim_seconds                                  2.255491                       # Number of seconds simulated
sim_ticks                                2255490558000                       # Number of ticks simulated
final_tick                               2255490558000                       # Number of ticks from beginning of simulation (restored from checkpoints and never reset)
sim_freq                                 1000000000000                       # Frequency of simulated ticks
host_inst_rate                                3588673                       # Simulator instruction rate (inst/s)
host_op_rate                                  3588671                       # Simulator op (including micro ops) rate (op/s)
host_tick_rate                            82882081885                       # Simulator tick rate (ticks/s)
host_mem_usage                                 450288                       # Number of bytes of host memory used
host_seconds                                    27.21                       # Real time elapsed on the host
sim_insts                                    97659342                       # Number of instructions simulated
sim_ops                                      97659342                       # Number of ops (including micro ops) simulated
system.voltage_domain.voltage                       1                       # Voltage in Volts
system.clk_domain.clock                          1000                       # Clock period in ticks
system.mem_ctrls.bytes_read::cpu0.inst      289611772                       # Number of bytes read from this memory
system.mem_ctrls.bytes_read::cpu0.data       88179784                       # Number of bytes read from this memory
system.mem_ctrls.bytes_read::tsunami.ide         5256                       # Number of bytes read from this memory
system.mem_ctrls.bytes_read::cpu1.inst      101081952                       # Number of bytes read from this memory
system.mem_ctrls.bytes_read::cpu1.data       37538876                       # Number of bytes read from this memory
system.mem_ctrls.bytes_read::total          516417640                       # Number of bytes read from this memory
system.mem_ctrls.bytes_inst_read::cpu0.inst    289611772                       # Number of instructions bytes read from this memory
system.mem_ctrls.bytes_inst_read::cpu1.inst    101081952                       # Number of instructions bytes read from this memory
system.mem_ctrls.bytes_inst_read::total     390693724                       # Number of instructions bytes read from this memory
system.mem_ctrls.bytes_written::cpu0.data     41152408                       # Number of bytes written to this memory
system.mem_ctrls.bytes_written::tsunami.ide      2832384                       # Number of bytes written to this memory
system.mem_ctrls.bytes_written::cpu1.data     27527972                       # Number of bytes written to this memory
system.mem_ctrls.bytes_written::total        71512764                       # Number of bytes written to this memory
system.mem_ctrls.num_reads::cpu0.inst        72402943                       # Number of read requests responded to by this memory
system.mem_ctrls.num_reads::cpu0.data        12396580                       # Number of read requests responded to by this memory
system.mem_ctrls.num_reads::tsunami.ide           209                       # Number of read requests responded to by this memory
system.mem_ctrls.num_reads::cpu1.inst        25270488                       # Number of read requests responded to by this memory
system.mem_ctrls.num_reads::cpu1.data         5048553                       # Number of read requests responded to by this memory
system.mem_ctrls.num_reads::total           115118773                       # Number of read requests responded to by this memory
system.mem_ctrls.num_writes::cpu0.data        5504311                       # Number of write requests responded to by this memory
system.mem_ctrls.num_writes::tsunami.ide        44256                       # Number of write requests responded to by this memory
system.mem_ctrls.num_writes::cpu1.data        3592370                       # Number of write requests responded to by this memory
system.mem_ctrls.num_writes::total            9140937                       # Number of write requests responded to by this memory
system.mem_ctrls.bw_read::cpu0.inst         128403008                       # Total read bandwidth from this memory (bytes/s)
system.mem_ctrls.bw_read::cpu0.data          39095612                       # Total read bandwidth from this memory (bytes/s)
system.mem_ctrls.bw_read::tsunami.ide            2330                       # Total read bandwidth from this memory (bytes/s)
system.mem_ctrls.bw_read::cpu1.inst          44815950                       # Total read bandwidth from this memory (bytes/s)
system.mem_ctrls.bw_read::cpu1.data          16643331                       # Total read bandwidth from this memory (bytes/s)
system.mem_ctrls.bw_read::total             228960231                       # Total read bandwidth from this memory (bytes/s)
system.mem_ctrls.bw_inst_read::cpu0.inst    128403008                       # Instruction read bandwidth from this memory (bytes/s)
system.mem_ctrls.bw_inst_read::cpu1.inst     44815950                       # Instruction read bandwidth from this memory (bytes/s)
system.mem_ctrls.bw_inst_read::total        173218958                       # Instruction read bandwidth from this memory (bytes/s)
system.mem_ctrls.bw_write::cpu0.data         18245436                       # Write bandwidth from this memory (bytes/s)
system.mem_ctrls.bw_write::tsunami.ide        1255773                       # Write bandwidth from this memory (bytes/s)
system.mem_ctrls.bw_write::cpu1.data         12204871                       # Write bandwidth from this memory (bytes/s)
system.mem_ctrls.bw_write::total             31706080                       # Write bandwidth from this memory (bytes/s)
system.mem_ctrls.bw_total::cpu0.inst        128403008                       # Total bandwidth to/from this memory (bytes/s)
system.mem_ctrls.bw_total::cpu0.data         57341048                       # Total bandwidth to/from this memory (bytes/s)
system.mem_ctrls.bw_total::tsunami.ide        1258103                       # Total bandwidth to/from this memory (bytes/s)
system.mem_ctrls.bw_total::cpu1.inst         44815950                       # Total bandwidth to/from this memory (bytes/s)
system.mem_ctrls.bw_total::cpu1.data         28848202                       # Total bandwidth to/from this memory (bytes/s)
system.mem_ctrls.bw_total::total            260666311                       # Total bandwidth to/from this memory (bytes/s)
system.mem_ctrls.readReqs                           0                       # Number of read requests accepted
system.mem_ctrls.writeReqs                          0                       # Number of write requests accepted
system.mem_ctrls.readBursts                         0                       # Number of DRAM read bursts, including those serviced by the write queue
system.mem_ctrls.writeBursts                        0                       # Number of DRAM write bursts, including those merged in the write queue
system.mem_ctrls.bytesReadDRAM                      0                       # Total number of bytes read from DRAM
system.mem_ctrls.bytesReadWrQ                       0                       # Total number of bytes read from write queue
system.mem_ctrls.bytesWritten                       0                       # Total number of bytes written to DRAM
system.mem_ctrls.bytesReadSys                       0                       # Total read bytes from the system interface side
system.mem_ctrls.bytesWrittenSys                    0                       # Total written bytes from the system interface side
system.mem_ctrls.servicedByWrQ                      0                       # Number of DRAM read bursts serviced by the write queue
system.mem_ctrls.mergedWrBursts                     0                       # Number of DRAM write bursts merged with an existing one
system.mem_ctrls.neitherReadNorWriteReqs            0                       # Number of requests that are neither read nor write
system.mem_ctrls.perBankRdBursts::0                 0                       # Per bank write bursts
system.mem_ctrls.perBankRdBursts::1                 0                       # Per bank write bursts
system.mem_ctrls.perBankRdBursts::2                 0                       # Per bank write bursts
system.mem_ctrls.perBankRdBursts::3                 0                       # Per bank write bursts
system.mem_ctrls.perBankRdBursts::4                 0                       # Per bank write bursts
system.mem_ctrls.perBankRdBursts::5                 0                       # Per bank write bursts
system.mem_ctrls.perBankRdBursts::6                 0                       # Per bank write bursts
system.mem_ctrls.perBankRdBursts::7                 0                       # Per bank write bursts
system.mem_ctrls.perBankRdBursts::8                 0                       # Per bank write bursts
system.mem_ctrls.perBankRdBursts::9                 0                       # Per bank write bursts
system.mem_ctrls.perBankRdBursts::10                0                       # Per bank write bursts
system.mem_ctrls.perBankRdBursts::11                0                       # Per bank write bursts
system.mem_ctrls.perBankRdBursts::12                0                       # Per bank write bursts
system.mem_ctrls.perBankRdBursts::13                0                       # Per bank write bursts
system.mem_ctrls.perBankRdBursts::14                0                       # Per bank write bursts
system.mem_ctrls.perBankRdBursts::15                0                       # Per bank write bursts
system.mem_ctrls.perBankWrBursts::0                 0                       # Per bank write bursts
system.mem_ctrls.perBankWrBursts::1                 0                       # Per bank write bursts
system.mem_ctrls.perBankWrBursts::2                 0                       # Per bank write bursts
system.mem_ctrls.perBankWrBursts::3                 0                       # Per bank write bursts
system.mem_ctrls.perBankWrBursts::4                 0                       # Per bank write bursts
system.mem_ctrls.perBankWrBursts::5                 0                       # Per bank write bursts
system.mem_ctrls.perBankWrBursts::6                 0                       # Per bank write bursts
system.mem_ctrls.perBankWrBursts::7                 0                       # Per bank write bursts
system.mem_ctrls.perBankWrBursts::8                 0                       # Per bank write bursts
system.mem_ctrls.perBankWrBursts::9                 0                       # Per bank write bursts
system.mem_ctrls.perBankWrBursts::10                0                       # Per bank write bursts
system.mem_ctrls.perBankWrBursts::11                0                       # Per bank write bursts
system.mem_ctrls.perBankWrBursts::12                0                       # Per bank write bursts
system.mem_ctrls.perBankWrBursts::13                0                       # Per bank write bursts
system.mem_ctrls.perBankWrBursts::14                0                       # Per bank write bursts
system.mem_ctrls.perBankWrBursts::15                0                       # Per bank write bursts
system.mem_ctrls.numRdRetry                         0                       # Number of times read queue was full causing retry
system.mem_ctrls.numWrRetry                         0                       # Number of times write queue was full causing retry
system.mem_ctrls.totGap                             0                       # Total gap between requests
system.mem_ctrls.readPktSize::0                     0                       # Read request sizes (log2)
system.mem_ctrls.readPktSize::1                     0                       # Read request sizes (log2)
system.mem_ctrls.readPktSize::2                     0                       # Read request sizes (log2)
system.mem_ctrls.readPktSize::3                     0                       # Read request sizes (log2)
system.mem_ctrls.readPktSize::4                     0                       # Read request sizes (log2)
system.mem_ctrls.readPktSize::5                     0                       # Read request sizes (log2)
system.mem_ctrls.readPktSize::6                     0                       # Read request sizes (log2)
system.mem_ctrls.writePktSize::0                    0                       # Write request sizes (log2)
system.mem_ctrls.writePktSize::1                    0                       # Write request sizes (log2)
system.mem_ctrls.writePktSize::2                    0                       # Write request sizes (log2)
system.mem_ctrls.writePktSize::3                    0                       # Write request sizes (log2)
system.mem_ctrls.writePktSize::4                    0                       # Write request sizes (log2)
system.mem_ctrls.writePktSize::5                    0                       # Write request sizes (log2)
system.mem_ctrls.writePktSize::6                    0                       # Write request sizes (log2)
system.mem_ctrls.rdQLenPdf::0                       0                       # What read queue length does an incoming req see
system.mem_ctrls.rdQLenPdf::1                       0                       # What read queue length does an incoming req see
system.mem_ctrls.rdQLenPdf::2                       0                       # What read queue length does an incoming req see
system.mem_ctrls.rdQLenPdf::3                       0                       # What read queue length does an incoming req see
system.mem_ctrls.rdQLenPdf::4                       0                       # What read queue length does an incoming req see
system.mem_ctrls.rdQLenPdf::5                       0                       # What read queue length does an incoming req see
system.mem_ctrls.rdQLenPdf::6                       0                       # What read queue length does an incoming req see
system.mem_ctrls.rdQLenPdf::7                       0                       # What read queue length does an incoming req see
system.mem_ctrls.rdQLenPdf::8                       0                       # What read queue length does an incoming req see
system.mem_ctrls.rdQLenPdf::9                       0                       # What read queue length does an incoming req see
system.mem_ctrls.rdQLenPdf::10                      0                       # What read queue length does an incoming req see
system.mem_ctrls.rdQLenPdf::11                      0                       # What read queue length does an incoming req see
system.mem_ctrls.rdQLenPdf::12                      0                       # What read queue length does an incoming req see
system.mem_ctrls.rdQLenPdf::13                      0                       # What read queue length does an incoming req see
system.mem_ctrls.rdQLenPdf::14                      0                       # What read queue length does an incoming req see
system.mem_ctrls.rdQLenPdf::15                      0                       # What read queue length does an incoming req see
system.mem_ctrls.rdQLenPdf::16                      0                       # What read queue length does an incoming req see
system.mem_ctrls.rdQLenPdf::17                      0                       # What read queue length does an incoming req see
system.mem_ctrls.rdQLenPdf::18                      0                       # What read queue length does an incoming req see
system.mem_ctrls.rdQLenPdf::19                      0                       # What read queue length does an incoming req see
system.mem_ctrls.rdQLenPdf::20                      0                       # What read queue length does an incoming req see
system.mem_ctrls.rdQLenPdf::21                      0                       # What read queue length does an incoming req see
system.mem_ctrls.rdQLenPdf::22                      0                       # What read queue length does an incoming req see
system.mem_ctrls.rdQLenPdf::23                      0                       # What read queue length does an incoming req see
system.mem_ctrls.rdQLenPdf::24                      0                       # What read queue length does an incoming req see
system.mem_ctrls.rdQLenPdf::25                      0                       # What read queue length does an incoming req see
system.mem_ctrls.rdQLenPdf::26                      0                       # What read queue length does an incoming req see
system.mem_ctrls.rdQLenPdf::27                      0                       # What read queue length does an incoming req see
system.mem_ctrls.rdQLenPdf::28                      0                       # What read queue length does an incoming req see
system.mem_ctrls.rdQLenPdf::29                      0                       # What read queue length does an incoming req see
system.mem_ctrls.rdQLenPdf::30                      0                       # What read queue length does an incoming req see
system.mem_ctrls.rdQLenPdf::31                      0                       # What read queue length does an incoming req see
system.mem_ctrls.wrQLenPdf::0                       0                       # What write queue length does an incoming req see
system.mem_ctrls.wrQLenPdf::1                       0                       # What write queue length does an incoming req see
system.mem_ctrls.wrQLenPdf::2                       0                       # What write queue length does an incoming req see
system.mem_ctrls.wrQLenPdf::3                       0                       # What write queue length does an incoming req see
system.mem_ctrls.wrQLenPdf::4                       0                       # What write queue length does an incoming req see
system.mem_ctrls.wrQLenPdf::5                       0                       # What write queue length does an incoming req see
system.mem_ctrls.wrQLenPdf::6                       0                       # What write queue length does an incoming req see
system.mem_ctrls.wrQLenPdf::7                       0                       # What write queue length does an incoming req see
system.mem_ctrls.wrQLenPdf::8                       0                       # What write queue length does an incoming req see
system.mem_ctrls.wrQLenPdf::9                       0                       # What write queue length does an incoming req see
system.mem_ctrls.wrQLenPdf::10                      0                       # What write queue length does an incoming req see
system.mem_ctrls.wrQLenPdf::11                      0                       # What write queue length does an incoming req see
system.mem_ctrls.wrQLenPdf::12                      0                       # What write queue length does an incoming req see
system.mem_ctrls.wrQLenPdf::13                      0                       # What write queue length does an incoming req see
system.mem_ctrls.wrQLenPdf::14                      0                       # What write queue length does an incoming req see
system.mem_ctrls.wrQLenPdf::15                      0                       # What write queue length does an incoming req see
system.mem_ctrls.wrQLenPdf::16                      0                       # What write queue length does an incoming req see
system.mem_ctrls.wrQLenPdf::17                      0                       # What write queue length does an incoming req see
system.mem_ctrls.wrQLenPdf::18                      0                       # What write queue length does an incoming req see
system.mem_ctrls.wrQLenPdf::19                      0                       # What write queue length does an incoming req see
system.mem_ctrls.wrQLenPdf::20                      0                       # What write queue length does an incoming req see
system.mem_ctrls.wrQLenPdf::21                      0                       # What write queue length does an incoming req see
system.mem_ctrls.wrQLenPdf::22                      0                       # What write queue length does an incoming req see
system.mem_ctrls.wrQLenPdf::23                      0                       # What write queue length does an incoming req see
system.mem_ctrls.wrQLenPdf::24                      0                       # What write queue length does an incoming req see
system.mem_ctrls.wrQLenPdf::25                      0                       # What write queue length does an incoming req see
system.mem_ctrls.wrQLenPdf::26                      0                       # What write queue length does an incoming req see
system.mem_ctrls.wrQLenPdf::27                      0                       # What write queue length does an incoming req see
system.mem_ctrls.wrQLenPdf::28                      0                       # What write queue length does an incoming req see
system.mem_ctrls.wrQLenPdf::29                      0                       # What write queue length does an incoming req see
system.mem_ctrls.wrQLenPdf::30                      0                       # What write queue length does an incoming req see
system.mem_ctrls.wrQLenPdf::31                      0                       # What write queue length does an incoming req see
system.mem_ctrls.wrQLenPdf::32                      0                       # What write queue length does an incoming req see
system.mem_ctrls.wrQLenPdf::33                      0                       # What write queue length does an incoming req see
system.mem_ctrls.wrQLenPdf::34                      0                       # What write queue length does an incoming req see
system.mem_ctrls.wrQLenPdf::35                      0                       # What write queue length does an incoming req see
system.mem_ctrls.wrQLenPdf::36                      0                       # What write queue length does an incoming req see
system.mem_ctrls.wrQLenPdf::37                      0                       # What write queue length does an incoming req see
system.mem_ctrls.wrQLenPdf::38                      0                       # What write queue length does an incoming req see
system.mem_ctrls.wrQLenPdf::39                      0                       # What write queue length does an incoming req see
system.mem_ctrls.wrQLenPdf::40                      0                       # What write queue length does an incoming req see
system.mem_ctrls.wrQLenPdf::41                      0                       # What write queue length does an incoming req see
system.mem_ctrls.wrQLenPdf::42                      0                       # What write queue length does an incoming req see
system.mem_ctrls.wrQLenPdf::43                      0                       # What write queue length does an incoming req see
system.mem_ctrls.wrQLenPdf::44                      0                       # What write queue length does an incoming req see
system.mem_ctrls.wrQLenPdf::45                      0                       # What write queue length does an incoming req see
system.mem_ctrls.wrQLenPdf::46                      0                       # What write queue length does an incoming req see
system.mem_ctrls.wrQLenPdf::47                      0                       # What write queue length does an incoming req see
system.mem_ctrls.wrQLenPdf::48                      0                       # What write queue length does an incoming req see
system.mem_ctrls.wrQLenPdf::49                      0                       # What write queue length does an incoming req see
system.mem_ctrls.wrQLenPdf::50                      0                       # What write queue length does an incoming req see
system.mem_ctrls.wrQLenPdf::51                      0                       # What write queue length does an incoming req see
system.mem_ctrls.wrQLenPdf::52                      0                       # What write queue length does an incoming req see
system.mem_ctrls.wrQLenPdf::53                      0                       # What write queue length does an incoming req see
system.mem_ctrls.wrQLenPdf::54                      0                       # What write queue length does an incoming req see
system.mem_ctrls.wrQLenPdf::55                      0                       # What write queue length does an incoming req see
system.mem_ctrls.wrQLenPdf::56                      0                       # What write queue length does an incoming req see
system.mem_ctrls.wrQLenPdf::57                      0                       # What write queue length does an incoming req see
system.mem_ctrls.wrQLenPdf::58                      0                       # What write queue length does an incoming req see
system.mem_ctrls.wrQLenPdf::59                      0                       # What write queue length does an incoming req see
system.mem_ctrls.wrQLenPdf::60                      0                       # What write queue length does an incoming req see
system.mem_ctrls.wrQLenPdf::61                      0                       # What write queue length does an incoming req see
system.mem_ctrls.wrQLenPdf::62                      0                       # What write queue length does an incoming req see
system.mem_ctrls.wrQLenPdf::63                      0                       # What write queue length does an incoming req see
system.mem_ctrls.totQLat                            0                       # Total ticks spent queuing
system.mem_ctrls.totMemAccLat                       0                       # Total ticks spent from burst creation until serviced by the DRAM
system.mem_ctrls.totBusLat                          0                       # Total ticks spent in databus transfers
system.mem_ctrls.avgQLat                          nan                       # Average queueing delay per DRAM burst
system.mem_ctrls.avgBusLat                        nan                       # Average bus latency per DRAM burst
system.mem_ctrls.avgMemAccLat                     nan                       # Average memory access latency per DRAM burst
system.mem_ctrls.avgRdBW                         0.00                       # Average DRAM read bandwidth in MiByte/s
system.mem_ctrls.avgWrBW                         0.00                       # Average achieved write bandwidth in MiByte/s
system.mem_ctrls.avgRdBWSys                      0.00                       # Average system read bandwidth in MiByte/s
system.mem_ctrls.avgWrBWSys                      0.00                       # Average system write bandwidth in MiByte/s
system.mem_ctrls.peakBW                      12800.00                       # Theoretical peak bandwidth in MiByte/s
system.mem_ctrls.busUtil                         0.00                       # Data bus utilization in percentage
system.mem_ctrls.busUtilRead                     0.00                       # Data bus utilization in percentage for reads
system.mem_ctrls.busUtilWrite                    0.00                       # Data bus utilization in percentage for writes
system.mem_ctrls.avgRdQLen                       0.00                       # Average read queue length when enqueuing
system.mem_ctrls.avgWrQLen                       0.00                       # Average write queue length when enqueuing
system.mem_ctrls.readRowHits                        0                       # Number of row buffer hits during reads
system.mem_ctrls.writeRowHits                       0                       # Number of row buffer hits during writes
system.mem_ctrls.readRowHitRate                   nan                       # Row buffer hit rate for reads
system.mem_ctrls.writeRowHitRate                  nan                       # Row buffer hit rate for writes
system.mem_ctrls.avgGap                           nan                       # Average gap between requests
system.mem_ctrls.pageHitRate                      nan                       # Row buffer hit rate, read and write combined
system.mem_ctrls.memoryStateTime::IDLE   2180174255000                       # Time in different power states
system.mem_ctrls.memoryStateTime::REF     75315760000                       # Time in different power states
system.mem_ctrls.memoryStateTime::PRE_PDN            0                       # Time in different power states
system.mem_ctrls.memoryStateTime::ACT               0                       # Time in different power states
system.mem_ctrls.memoryStateTime::ACT_PDN            0                       # Time in different power states
system.mem_ctrls.actEnergy::0                       0                       # Energy for activate commands per rank (pJ)
system.mem_ctrls.actEnergy::1                       0                       # Energy for activate commands per rank (pJ)
system.mem_ctrls.preEnergy::0                       0                       # Energy for precharge commands per rank (pJ)
system.mem_ctrls.preEnergy::1                       0                       # Energy for precharge commands per rank (pJ)
system.mem_ctrls.readEnergy::0                      0                       # Energy for read commands per rank (pJ)
system.mem_ctrls.readEnergy::1                      0                       # Energy for read commands per rank (pJ)
system.mem_ctrls.writeEnergy::0                     0                       # Energy for write commands per rank (pJ)
system.mem_ctrls.writeEnergy::1                     0                       # Energy for write commands per rank (pJ)
system.mem_ctrls.refreshEnergy::0        147317626560                       # Energy for refresh commands per rank (pJ)
system.mem_ctrls.refreshEnergy::1        147317626560                       # Energy for refresh commands per rank (pJ)
system.mem_ctrls.actBackEnergy::0         48791577060                       # Energy for active background per rank (pJ)
system.mem_ctrls.actBackEnergy::1         48791577060                       # Energy for active background per rank (pJ)
system.mem_ctrls.preBackEnergy::0        1310494371750                       # Energy for precharge background per rank (pJ)
system.mem_ctrls.preBackEnergy::1        1310494371750                       # Energy for precharge background per rank (pJ)
system.mem_ctrls.totalEnergy::0          1506603575370                       # Total energy per rank (pJ)
system.mem_ctrls.totalEnergy::1          1506603575370                       # Total energy per rank (pJ)
system.mem_ctrls.averagePower::0           667.971738                       # Core power per rank (mW)
system.mem_ctrls.averagePower::1           667.971738                       # Core power per rank (mW)
system.membus.trans_dist::ReadReq           114855620                       # Transaction distribution
system.membus.trans_dist::ReadResp          115126657                       # Transaction distribution
system.membus.trans_dist::WriteReq            8888073                       # Transaction distribution
system.membus.trans_dist::WriteResp           8888073                       # Transaction distribution
system.membus.trans_dist::LoadLockedReq        271037                       # Transaction distribution
system.membus.trans_dist::StoreCondReq         269788                       # Transaction distribution
system.membus.trans_dist::StoreCondResp        269788                       # Transaction distribution
system.membus.pkt_count_system.iobridge.master::system.mem_ctrls.port        88930                       # Packet count per connected master and slave (bytes)
system.membus.pkt_count_system.iobridge.master::total        88930                       # Packet count per connected master and slave (bytes)
system.membus.pkt_count_system.cpu0.icache_port::system.mem_ctrls.port    144805886                       # Packet count per connected master and slave (bytes)
system.membus.pkt_count_system.cpu0.icache_port::total    144805886                       # Packet count per connected master and slave (bytes)
system.membus.pkt_count_system.cpu0.dcache_port::system.bridge.slave        39500                       # Packet count per connected master and slave (bytes)
system.membus.pkt_count_system.cpu0.dcache_port::system.mem_ctrls.port     35801782                       # Packet count per connected master and slave (bytes)
system.membus.pkt_count_system.cpu0.dcache_port::total     35841282                       # Packet count per connected master and slave (bytes)
system.membus.pkt_count_system.cpu1.icache_port::system.mem_ctrls.port     50540976                       # Packet count per connected master and slave (bytes)
system.membus.pkt_count_system.cpu1.icache_port::total     50540976                       # Packet count per connected master and slave (bytes)
system.membus.pkt_count_system.cpu1.dcache_port::system.bridge.slave        10116                       # Packet count per connected master and slave (bytes)
system.membus.pkt_count_system.cpu1.dcache_port::system.mem_ctrls.port     17281846                       # Packet count per connected master and slave (bytes)
system.membus.pkt_count_system.cpu1.dcache_port::total     17291962                       # Packet count per connected master and slave (bytes)
system.membus.pkt_count::total              248569036                       # Packet count per connected master and slave (bytes)
system.membus.pkt_size_system.iobridge.master::system.mem_ctrls.port      2837640                       # Cumulative packet size per connected master and slave (bytes)
system.membus.pkt_size_system.iobridge.master::total      2837640                       # Cumulative packet size per connected master and slave (bytes)
system.membus.pkt_size_system.cpu0.icache_port::system.mem_ctrls.port    289611772                       # Cumulative packet size per connected master and slave (bytes)
system.membus.pkt_size_system.cpu0.icache_port::total    289611772                       # Cumulative packet size per connected master and slave (bytes)
system.membus.pkt_size_system.cpu0.dcache_port::system.bridge.slave        63304                       # Cumulative packet size per connected master and slave (bytes)
system.membus.pkt_size_system.cpu0.dcache_port::system.mem_ctrls.port    129332192                       # Cumulative packet size per connected master and slave (bytes)
system.membus.pkt_size_system.cpu0.dcache_port::total    129395496                       # Cumulative packet size per connected master and slave (bytes)
system.membus.pkt_size_system.cpu1.icache_port::system.mem_ctrls.port    101081952                       # Cumulative packet size per connected master and slave (bytes)
system.membus.pkt_size_system.cpu1.icache_port::total    101081952                       # Cumulative packet size per connected master and slave (bytes)
system.membus.pkt_size_system.cpu1.dcache_port::system.bridge.slave        35346                       # Cumulative packet size per connected master and slave (bytes)
system.membus.pkt_size_system.cpu1.dcache_port::system.mem_ctrls.port     65066848                       # Cumulative packet size per connected master and slave (bytes)
system.membus.pkt_size_system.cpu1.dcache_port::total     65102194                       # Cumulative packet size per connected master and slave (bytes)
system.membus.pkt_size::total               588029054                       # Cumulative packet size per connected master and slave (bytes)
system.membus.snoops                                0                       # Total snoops (count)
system.membus.snoop_fanout::samples         124259710                       # Request fanout histogram
system.membus.snoop_fanout::mean             1.786400                       # Request fanout histogram
system.membus.snoop_fanout::stdev            0.409847                       # Request fanout histogram
system.membus.snoop_fanout::underflows              0      0.00%      0.00% # Request fanout histogram
system.membus.snoop_fanout::0                       0      0.00%      0.00% # Request fanout histogram
system.membus.snoop_fanout::1                26541814     21.36%     21.36% # Request fanout histogram
system.membus.snoop_fanout::2                97717896     78.64%    100.00% # Request fanout histogram
system.membus.snoop_fanout::overflows               0      0.00%    100.00% # Request fanout histogram
system.membus.snoop_fanout::min_value               1                       # Request fanout histogram
system.membus.snoop_fanout::max_value               2                       # Request fanout histogram
system.membus.snoop_fanout::total           124259710                       # Request fanout histogram
system.disk0.dma_read_full_pages                    0                       # Number of full page size DMA reads (not PRD).
system.disk0.dma_read_bytes                      4096                       # Number of bytes transfered via DMA reads (not PRD).
system.disk0.dma_read_txs                           1                       # Number of DMA read transactions (not PRD).
system.disk0.dma_write_full_pages                 326                       # Number of full page size DMA writes.
system.disk0.dma_write_bytes                  2824192                       # Number of bytes transfered via DMA writes.
system.disk0.dma_write_txs                        365                       # Number of DMA write transactions.
system.disk2.dma_read_full_pages                    0                       # Number of full page size DMA reads (not PRD).
system.disk2.dma_read_bytes                         0                       # Number of bytes transfered via DMA reads (not PRD).
system.disk2.dma_read_txs                           0                       # Number of DMA read transactions (not PRD).
system.disk2.dma_write_full_pages                   1                       # Number of full page size DMA writes.
system.disk2.dma_write_bytes                     8192                       # Number of bytes transfered via DMA writes.
system.disk2.dma_write_txs                          1                       # Number of DMA write transactions.
system.cpu_voltage_domain.voltage                   1                       # Voltage in Volts
system.cpu_clk_domain.clock                       500                       # Clock period in ticks
system.cpu0.dtb.fetch_hits                          0                       # ITB hits
system.cpu0.dtb.fetch_misses                        0                       # ITB misses
system.cpu0.dtb.fetch_acv                           0                       # ITB acv
system.cpu0.dtb.fetch_accesses                      0                       # ITB accesses
system.cpu0.dtb.read_hits                    12387703                       # DTB read hits
system.cpu0.dtb.read_misses                      6670                       # DTB read misses
system.cpu0.dtb.read_acv                           46                       # DTB read access violations
system.cpu0.dtb.read_accesses                  499471                       # DTB read accesses
system.cpu0.dtb.write_hits                    5509063                       # DTB write hits
system.cpu0.dtb.write_misses                      586                       # DTB write misses
system.cpu0.dtb.write_acv                          79                       # DTB write access violations
system.cpu0.dtb.write_accesses                 170848                       # DTB write accesses
system.cpu0.dtb.data_hits                    17896766                       # DTB hits
system.cpu0.dtb.data_misses                      7256                       # DTB misses
system.cpu0.dtb.data_acv                          125                       # DTB access violations
system.cpu0.dtb.data_accesses                  670319                       # DTB accesses
system.cpu0.itb.fetch_hits                    3385590                       # ITB hits
system.cpu0.itb.fetch_misses                     3295                       # ITB misses
system.cpu0.itb.fetch_acv                           1                       # ITB acv
system.cpu0.itb.fetch_accesses                3388885                       # ITB accesses
system.cpu0.itb.read_hits                           0                       # DTB read hits
system.cpu0.itb.read_misses                         0                       # DTB read misses
system.cpu0.itb.read_acv                            0                       # DTB read access violations
system.cpu0.itb.read_accesses                       0                       # DTB read accesses
system.cpu0.itb.write_hits                          0                       # DTB write hits
system.cpu0.itb.write_misses                        0                       # DTB write misses
system.cpu0.itb.write_acv                           0                       # DTB write access violations
system.cpu0.itb.write_accesses                      0                       # DTB write accesses
system.cpu0.itb.data_hits                           0                       # DTB hits
system.cpu0.itb.data_misses                         0                       # DTB misses
system.cpu0.itb.data_acv                            0                       # DTB access violations
system.cpu0.itb.data_accesses                       0                       # DTB accesses
system.cpu0.numCycles                      4510574105                       # number of cpu cycles simulated
system.cpu0.numWorkItemsStarted                     0                       # number of work items this cpu started
system.cpu0.numWorkItemsCompleted                   0                       # number of work items this cpu completed
system.cpu0.committedInsts                   72395562                       # Number of instructions committed
system.cpu0.committedOps                     72395562                       # Number of ops (including micro ops) committed
system.cpu0.num_int_alu_accesses             70023626                       # Number of integer alu accesses
system.cpu0.num_fp_alu_accesses                224741                       # Number of float alu accesses
system.cpu0.num_func_calls                    2248833                       # number of times a function call or return occured
system.cpu0.num_conditional_control_insts      9481941                       # number of instructions that are conditional controls
system.cpu0.num_int_insts                    70023626                       # number of integer instructions
system.cpu0.num_fp_insts                       224741                       # number of float instructions
system.cpu0.num_int_register_reads           95741383                       # number of times the integer registers were read
system.cpu0.num_int_register_writes          54065769                       # number of times the integer registers were written
system.cpu0.num_fp_register_reads               93223                       # number of times the floating registers were read
system.cpu0.num_fp_register_writes              94602                       # number of times the floating registers were written
system.cpu0.num_mem_refs                     17932566                       # number of memory refs
system.cpu0.num_load_insts                   12411003                       # Number of load instructions
system.cpu0.num_store_insts                   5521563                       # Number of store instructions
system.cpu0.num_idle_cycles              4438182151.537451                       # Number of idle cycles
system.cpu0.num_busy_cycles              72391953.462549                       # Number of busy cycles
system.cpu0.not_idle_fraction                0.016049                       # Percentage of non-idle cycles
system.cpu0.idle_fraction                    0.983951                       # Percentage of idle cycles
system.cpu0.Branches                         12170984                       # Number of branches fetched
system.cpu0.op_class::No_OpClass              1459168      2.02%      2.02% # Class of executed instruction
system.cpu0.op_class::IntAlu                 51842695     71.60%     73.62% # Class of executed instruction
system.cpu0.op_class::IntMult                  119900      0.17%     73.78% # Class of executed instruction
system.cpu0.op_class::IntDiv                        0      0.00%     73.78% # Class of executed instruction
system.cpu0.op_class::FloatAdd                  66411      0.09%     73.88% # Class of executed instruction
system.cpu0.op_class::FloatCmp                      0      0.00%     73.88% # Class of executed instruction
system.cpu0.op_class::FloatCvt                      0      0.00%     73.88% # Class of executed instruction
system.cpu0.op_class::FloatMult                     0      0.00%     73.88% # Class of executed instruction
system.cpu0.op_class::FloatDiv                   2563      0.00%     73.88% # Class of executed instruction
system.cpu0.op_class::FloatSqrt                     0      0.00%     73.88% # Class of executed instruction
system.cpu0.op_class::SimdAdd                       0      0.00%     73.88% # Class of executed instruction
system.cpu0.op_class::SimdAddAcc                    0      0.00%     73.88% # Class of executed instruction
system.cpu0.op_class::SimdAlu                       0      0.00%     73.88% # Class of executed instruction
system.cpu0.op_class::SimdCmp                       0      0.00%     73.88% # Class of executed instruction
system.cpu0.op_class::SimdCvt                       0      0.00%     73.88% # Class of executed instruction
system.cpu0.op_class::SimdMisc                      0      0.00%     73.88% # Class of executed instruction
system.cpu0.op_class::SimdMult                      0      0.00%     73.88% # Class of executed instruction
system.cpu0.op_class::SimdMultAcc                   0      0.00%     73.88% # Class of executed instruction
system.cpu0.op_class::SimdShift                     0      0.00%     73.88% # Class of executed instruction
system.cpu0.op_class::SimdShiftAcc                  0      0.00%     73.88% # Class of executed instruction
system.cpu0.op_class::SimdSqrt                      0      0.00%     73.88% # Class of executed instruction
system.cpu0.op_class::SimdFloatAdd                  0      0.00%     73.88% # Class of executed instruction
system.cpu0.op_class::SimdFloatAlu                  0      0.00%     73.88% # Class of executed instruction
system.cpu0.op_class::SimdFloatCmp                  0      0.00%     73.88% # Class of executed instruction
system.cpu0.op_class::SimdFloatCvt                  0      0.00%     73.88% # Class of executed instruction
system.cpu0.op_class::SimdFloatDiv                  0      0.00%     73.88% # Class of executed instruction
system.cpu0.op_class::SimdFloatMisc                 0      0.00%     73.88% # Class of executed instruction
system.cpu0.op_class::SimdFloatMult                 0      0.00%     73.88% # Class of executed instruction
system.cpu0.op_class::SimdFloatMultAcc              0      0.00%     73.88% # Class of executed instruction
system.cpu0.op_class::SimdFloatSqrt                 0      0.00%     73.88% # Class of executed instruction
system.cpu0.op_class::MemRead                12692897     17.53%     91.41% # Class of executed instruction
system.cpu0.op_class::MemWrite                5539752      7.65%     99.06% # Class of executed instruction
system.cpu0.op_class::IprAccess                679557      0.94%    100.00% # Class of executed instruction
system.cpu0.op_class::InstPrefetch                  0      0.00%    100.00% # Class of executed instruction
system.cpu0.op_class::total                  72402943                       # Class of executed instruction
system.cpu0.kern.inst.arm                           0                       # number of arm instructions executed
system.cpu0.kern.inst.quiesce                    7789                       # number of quiesce instructions executed
system.cpu0.kern.inst.hwrei                    151110                       # number of hwrei instructions executed
system.cpu0.kern.ipl_count::0                   50142     38.29%     38.29% # number of times we switched to this ipl
system.cpu0.kern.ipl_count::21                    331      0.25%     38.54% # number of times we switched to this ipl
system.cpu0.kern.ipl_count::22                   2303      1.76%     40.30% # number of times we switched to this ipl
system.cpu0.kern.ipl_count::30                    758      0.58%     40.88% # number of times we switched to this ipl
system.cpu0.kern.ipl_count::31                  77426     59.12%    100.00% # number of times we switched to this ipl
system.cpu0.kern.ipl_count::total              130960                       # number of times we switched to this ipl
system.cpu0.kern.ipl_good::0                    49936     48.72%     48.72% # number of times we switched to this ipl from a different ipl
system.cpu0.kern.ipl_good::21                     331      0.32%     49.04% # number of times we switched to this ipl from a different ipl
system.cpu0.kern.ipl_good::22                    2303      2.25%     51.28% # number of times we switched to this ipl from a different ipl
system.cpu0.kern.ipl_good::30                     758      0.74%     52.02% # number of times we switched to this ipl from a different ipl
system.cpu0.kern.ipl_good::31                   49178     47.98%    100.00% # number of times we switched to this ipl from a different ipl
system.cpu0.kern.ipl_good::total               102506                       # number of times we switched to this ipl from a different ipl
system.cpu0.kern.ipl_ticks::0            2237546226500     99.21%     99.21% # number of cycles we spent at this ipl
system.cpu0.kern.ipl_ticks::21               25809500      0.00%     99.21% # number of cycles we spent at this ipl
system.cpu0.kern.ipl_ticks::22              112847000      0.01%     99.22% # number of cycles we spent at this ipl
system.cpu0.kern.ipl_ticks::30               85142500      0.00%     99.22% # number of cycles we spent at this ipl
system.cpu0.kern.ipl_ticks::31            17513126500      0.78%    100.00% # number of cycles we spent at this ipl
system.cpu0.kern.ipl_ticks::total        2255283152000                       # number of cycles we spent at this ipl
system.cpu0.kern.ipl_used::0                 0.995892                       # fraction of swpipl calls that actually changed the ipl
system.cpu0.kern.ipl_used::21                       1                       # fraction of swpipl calls that actually changed the ipl
system.cpu0.kern.ipl_used::22                       1                       # fraction of swpipl calls that actually changed the ipl
system.cpu0.kern.ipl_used::30                       1                       # fraction of swpipl calls that actually changed the ipl
system.cpu0.kern.ipl_used::31                0.635161                       # fraction of swpipl calls that actually changed the ipl
system.cpu0.kern.ipl_used::total             0.782728                       # fraction of swpipl calls that actually changed the ipl
system.cpu0.kern.syscall::2                         5      2.45%      2.45% # number of syscalls executed
system.cpu0.kern.syscall::3                        17      8.33%     10.78% # number of syscalls executed
system.cpu0.kern.syscall::4                         4      1.96%     12.75% # number of syscalls executed
system.cpu0.kern.syscall::6                        26     12.75%     25.49% # number of syscalls executed
system.cpu0.kern.syscall::12                        1      0.49%     25.98% # number of syscalls executed
system.cpu0.kern.syscall::15                        1      0.49%     26.47% # number of syscalls executed
system.cpu0.kern.syscall::17                        9      4.41%     30.88% # number of syscalls executed
system.cpu0.kern.syscall::19                        5      2.45%     33.33% # number of syscalls executed
system.cpu0.kern.syscall::20                        4      1.96%     35.29% # number of syscalls executed
system.cpu0.kern.syscall::23                        3      1.47%     36.76% # number of syscalls executed
system.cpu0.kern.syscall::24                        5      2.45%     39.22% # number of syscalls executed
system.cpu0.kern.syscall::33                        7      3.43%     42.65% # number of syscalls executed
system.cpu0.kern.syscall::41                        2      0.98%     43.63% # number of syscalls executed
system.cpu0.kern.syscall::45                       34     16.67%     60.29% # number of syscalls executed
system.cpu0.kern.syscall::47                        5      2.45%     62.75% # number of syscalls executed
system.cpu0.kern.syscall::48                        5      2.45%     65.20% # number of syscalls executed
system.cpu0.kern.syscall::54                        9      4.41%     69.61% # number of syscalls executed
system.cpu0.kern.syscall::58                        1      0.49%     70.10% # number of syscalls executed
system.cpu0.kern.syscall::59                        2      0.98%     71.08% # number of syscalls executed
system.cpu0.kern.syscall::71                       29     14.22%     85.29% # number of syscalls executed
system.cpu0.kern.syscall::73                        4      1.96%     87.25% # number of syscalls executed
system.cpu0.kern.syscall::74                        8      3.92%     91.18% # number of syscalls executed
system.cpu0.kern.syscall::87                        1      0.49%     91.67% # number of syscalls executed
system.cpu0.kern.syscall::90                        1      0.49%     92.16% # number of syscalls executed
system.cpu0.kern.syscall::92                        6      2.94%     95.10% # number of syscalls executed
system.cpu0.kern.syscall::97                        2      0.98%     96.08% # number of syscalls executed
system.cpu0.kern.syscall::98                        2      0.98%     97.06% # number of syscalls executed
system.cpu0.kern.syscall::132                       3      1.47%     98.53% # number of syscalls executed
system.cpu0.kern.syscall::144                       1      0.49%     99.02% # number of syscalls executed
system.cpu0.kern.syscall::147                       2      0.98%    100.00% # number of syscalls executed
system.cpu0.kern.syscall::total                   204                       # number of syscalls executed
system.cpu0.kern.callpal::cserve                    1      0.00%      0.00% # number of callpals executed
system.cpu0.kern.callpal::wripir                 1044      0.76%      0.76% # number of callpals executed
system.cpu0.kern.callpal::wrmces                    1      0.00%      0.76% # number of callpals executed
system.cpu0.kern.callpal::wrfen                     1      0.00%      0.76% # number of callpals executed
system.cpu0.kern.callpal::wrvptptr                  1      0.00%      0.76% # number of callpals executed
system.cpu0.kern.callpal::swpctx                 2576      1.88%      2.64% # number of callpals executed
system.cpu0.kern.callpal::tbi                      34      0.02%      2.67% # number of callpals executed
system.cpu0.kern.callpal::wrent                     7      0.01%      2.67% # number of callpals executed
system.cpu0.kern.callpal::swpipl               123023     89.77%     92.45% # number of callpals executed
system.cpu0.kern.callpal::rdps                   5352      3.91%     96.35% # number of callpals executed
system.cpu0.kern.callpal::wrkgp                     1      0.00%     96.35% # number of callpals executed
system.cpu0.kern.callpal::wrusp                     3      0.00%     96.36% # number of callpals executed
system.cpu0.kern.callpal::rdusp                     7      0.01%     96.36% # number of callpals executed
system.cpu0.kern.callpal::whami                     2      0.00%     96.36% # number of callpals executed
system.cpu0.kern.callpal::rti                    4544      3.32%     99.68% # number of callpals executed
system.cpu0.kern.callpal::callsys                 293      0.21%     99.89% # number of callpals executed
system.cpu0.kern.callpal::imb                     149      0.11%    100.00% # number of callpals executed
system.cpu0.kern.callpal::total                137039                       # number of callpals executed
system.cpu0.kern.mode_switch::kernel             6941                       # number of protection mode switches
system.cpu0.kern.mode_switch::user                956                       # number of protection mode switches
system.cpu0.kern.mode_switch::idle                  0                       # number of protection mode switches
system.cpu0.kern.mode_good::kernel                956                      
system.cpu0.kern.mode_good::user                  956                      
system.cpu0.kern.mode_good::idle                    0                      
system.cpu0.kern.mode_switch_good::kernel     0.137732                       # fraction of useful protection mode switches
system.cpu0.kern.mode_switch_good::user             1                       # fraction of useful protection mode switches
system.cpu0.kern.mode_switch_good::idle           nan                       # fraction of useful protection mode switches
system.cpu0.kern.mode_switch_good::total     0.242117                       # fraction of useful protection mode switches
system.cpu0.kern.mode_ticks::kernel      2254308863500     99.96%     99.96% # number of ticks spent at the given mode
system.cpu0.kern.mode_ticks::user           909617000      0.04%    100.00% # number of ticks spent at the given mode
system.cpu0.kern.mode_ticks::idle                   0      0.00%    100.00% # number of ticks spent at the given mode
system.cpu0.kern.swap_context                    2577                       # number of times the context was actually changed
system.tsunami.ethernet.descDMAReads                0                       # Number of descriptors the device read w/ DMA
system.tsunami.ethernet.descDMAWrites               0                       # Number of descriptors the device wrote w/ DMA
system.tsunami.ethernet.descDmaReadBytes            0                       # number of descriptor bytes read w/ DMA
system.tsunami.ethernet.descDmaWriteBytes            0                       # number of descriptor bytes write w/ DMA
system.tsunami.ethernet.postedSwi                   0                       # number of software interrupts posted to CPU
system.tsunami.ethernet.coalescedSwi              nan                       # average number of Swi's coalesced into each post
system.tsunami.ethernet.totalSwi                    0                       # total number of Swi written to ISR
system.tsunami.ethernet.postedRxIdle                0                       # number of rxIdle interrupts posted to CPU
system.tsunami.ethernet.coalescedRxIdle           nan                       # average number of RxIdle's coalesced into each post
system.tsunami.ethernet.totalRxIdle                 0                       # total number of RxIdle written to ISR
system.tsunami.ethernet.postedRxOk                  0                       # number of RxOk interrupts posted to CPU
system.tsunami.ethernet.coalescedRxOk             nan                       # average number of RxOk's coalesced into each post
system.tsunami.ethernet.totalRxOk                   0                       # total number of RxOk written to ISR
system.tsunami.ethernet.postedRxDesc                0                       # number of RxDesc interrupts posted to CPU
system.tsunami.ethernet.coalescedRxDesc           nan                       # average number of RxDesc's coalesced into each post
system.tsunami.ethernet.totalRxDesc                 0                       # total number of RxDesc written to ISR
system.tsunami.ethernet.postedTxOk                  0                       # number of TxOk interrupts posted to CPU
system.tsunami.ethernet.coalescedTxOk             nan                       # average number of TxOk's coalesced into each post
system.tsunami.ethernet.totalTxOk                   0                       # total number of TxOk written to ISR
system.tsunami.ethernet.postedTxIdle                0                       # number of TxIdle interrupts posted to CPU
system.tsunami.ethernet.coalescedTxIdle           nan                       # average number of TxIdle's coalesced into each post
system.tsunami.ethernet.totalTxIdle                 0                       # total number of TxIdle written to ISR
system.tsunami.ethernet.postedTxDesc                0                       # number of TxDesc interrupts posted to CPU
system.tsunami.ethernet.coalescedTxDesc           nan                       # average number of TxDesc's coalesced into each post
system.tsunami.ethernet.totalTxDesc                 0                       # total number of TxDesc written to ISR
system.tsunami.ethernet.postedRxOrn                 0                       # number of RxOrn posted to CPU
system.tsunami.ethernet.coalescedRxOrn            nan                       # average number of RxOrn's coalesced into each post
system.tsunami.ethernet.totalRxOrn                  0                       # total number of RxOrn written to ISR
system.tsunami.ethernet.coalescedTotal            nan                       # average number of interrupts coalesced into each post
system.tsunami.ethernet.postedInterrupts            0                       # number of posts to CPU
system.tsunami.ethernet.droppedPackets              0                       # number of packets dropped
system.iobus.trans_dist::ReadReq                 8093                       # Transaction distribution
system.iobus.trans_dist::ReadResp                8093                       # Transaction distribution
system.iobus.trans_dist::WriteReq               61180                       # Transaction distribution
system.iobus.trans_dist::WriteResp              61180                       # Transaction distribution
system.iobus.pkt_count_system.bridge.master::system.tsunami.cchip.pio        17474                       # Packet count per connected master and slave (bytes)
system.iobus.pkt_count_system.bridge.master::system.tsunami.pchip.pio          264                       # Packet count per connected master and slave (bytes)
system.iobus.pkt_count_system.bridge.master::system.tsunami.fake_sm_chip.pio           20                       # Packet count per connected master and slave (bytes)
system.iobus.pkt_count_system.bridge.master::system.tsunami.fake_uart4.pio           20                       # Packet count per connected master and slave (bytes)
system.iobus.pkt_count_system.bridge.master::system.tsunami.fake_ata0.pio           22                       # Packet count per connected master and slave (bytes)
system.iobus.pkt_count_system.bridge.master::system.tsunami.fake_ata1.pio           22                       # Packet count per connected master and slave (bytes)
system.iobus.pkt_count_system.bridge.master::system.tsunami.io.pio         1968                       # Packet count per connected master and slave (bytes)
system.iobus.pkt_count_system.bridge.master::system.tsunami.uart.pio        20956                       # Packet count per connected master and slave (bytes)
system.iobus.pkt_count_system.bridge.master::system.tsunami.backdoor.pio         2470                       # Packet count per connected master and slave (bytes)
system.iobus.pkt_count_system.bridge.master::system.tsunami.ide.pio         5760                       # Packet count per connected master and slave (bytes)
system.iobus.pkt_count_system.bridge.master::system.tsunami.ide-pciconf          284                       # Packet count per connected master and slave (bytes)
system.iobus.pkt_count_system.bridge.master::system.tsunami.ethernet.pio          100                       # Packet count per connected master and slave (bytes)
system.iobus.pkt_count_system.bridge.master::system.tsunami.ethernet-pciconf          196                       # Packet count per connected master and slave (bytes)
system.iobus.pkt_count_system.bridge.master::system.tsunami.pciconfig.pio           60                       # Packet count per connected master and slave (bytes)
system.iobus.pkt_count_system.bridge.master::total        49616                       # Packet count per connected master and slave (bytes)
system.iobus.pkt_count_system.tsunami.ide.dma::system.iobridge.slave        88930                       # Packet count per connected master and slave (bytes)
system.iobus.pkt_count_system.tsunami.ide.dma::total        88930                       # Packet count per connected master and slave (bytes)
system.iobus.pkt_count::total                  138546                       # Packet count per connected master and slave (bytes)
system.iobus.pkt_size_system.bridge.master::system.tsunami.cchip.pio        69896                       # Cumulative packet size per connected master and slave (bytes)
system.iobus.pkt_size_system.bridge.master::system.tsunami.pchip.pio         1056                       # Cumulative packet size per connected master and slave (bytes)
system.iobus.pkt_size_system.bridge.master::system.tsunami.fake_sm_chip.pio           10                       # Cumulative packet size per connected master and slave (bytes)
system.iobus.pkt_size_system.bridge.master::system.tsunami.fake_uart4.pio           10                       # Cumulative packet size per connected master and slave (bytes)
system.iobus.pkt_size_system.bridge.master::system.tsunami.fake_ata0.pio           11                       # Cumulative packet size per connected master and slave (bytes)
system.iobus.pkt_size_system.bridge.master::system.tsunami.fake_ata1.pio           11                       # Cumulative packet size per connected master and slave (bytes)
system.iobus.pkt_size_system.bridge.master::system.tsunami.io.pio         2622                       # Cumulative packet size per connected master and slave (bytes)
system.iobus.pkt_size_system.bridge.master::system.tsunami.uart.pio        10478                       # Cumulative packet size per connected master and slave (bytes)
system.iobus.pkt_size_system.bridge.master::system.tsunami.backdoor.pio         9860                       # Cumulative packet size per connected master and slave (bytes)
system.iobus.pkt_size_system.bridge.master::system.tsunami.ide.pio         3665                       # Cumulative packet size per connected master and slave (bytes)
system.iobus.pkt_size_system.bridge.master::system.tsunami.ide-pciconf          400                       # Cumulative packet size per connected master and slave (bytes)
system.iobus.pkt_size_system.bridge.master::system.tsunami.ethernet.pio          200                       # Cumulative packet size per connected master and slave (bytes)
system.iobus.pkt_size_system.bridge.master::system.tsunami.ethernet-pciconf          311                       # Cumulative packet size per connected master and slave (bytes)
system.iobus.pkt_size_system.bridge.master::system.tsunami.pciconfig.pio          120                       # Cumulative packet size per connected master and slave (bytes)
system.iobus.pkt_size_system.bridge.master::total        98650                       # Cumulative packet size per connected master and slave (bytes)
system.iobus.pkt_size_system.tsunami.ide.dma::system.iobridge.slave      2837640                       # Cumulative packet size per connected master and slave (bytes)
system.iobus.pkt_size_system.tsunami.ide.dma::total      2837640                       # Cumulative packet size per connected master and slave (bytes)
system.iobus.pkt_size::total                  2936290                       # Cumulative packet size per connected master and slave (bytes)
system.cpu1.dtb.fetch_hits                          0                       # ITB hits
system.cpu1.dtb.fetch_misses                        0                       # ITB misses
system.cpu1.dtb.fetch_acv                           0                       # ITB acv
system.cpu1.dtb.fetch_accesses                      0                       # ITB accesses
system.cpu1.dtb.read_hits                     5026620                       # DTB read hits
system.cpu1.dtb.read_misses                      5823                       # DTB read misses
system.cpu1.dtb.read_acv                           52                       # DTB read access violations
system.cpu1.dtb.read_accesses                  348327                       # DTB read accesses
system.cpu1.dtb.write_hits                    3587430                       # DTB write hits
system.cpu1.dtb.write_misses                      736                       # DTB write misses
system.cpu1.dtb.write_acv                          97                       # DTB write access violations
system.cpu1.dtb.write_accesses                 168888                       # DTB write accesses
system.cpu1.dtb.data_hits                     8614050                       # DTB hits
system.cpu1.dtb.data_misses                      6559                       # DTB misses
system.cpu1.dtb.data_acv                          149                       # DTB access violations
system.cpu1.dtb.data_accesses                  517215                       # DTB accesses
system.cpu1.itb.fetch_hits                    3169526                       # ITB hits
system.cpu1.itb.fetch_misses                     2907                       # ITB misses
system.cpu1.itb.fetch_acv                           0                       # ITB acv
system.cpu1.itb.fetch_accesses                3172433                       # ITB accesses
system.cpu1.itb.read_hits                           0                       # DTB read hits
system.cpu1.itb.read_misses                         0                       # DTB read misses
system.cpu1.itb.read_acv                            0                       # DTB read access violations
system.cpu1.itb.read_accesses                       0                       # DTB read accesses
system.cpu1.itb.write_hits                          0                       # DTB write hits
system.cpu1.itb.write_misses                        0                       # DTB write misses
system.cpu1.itb.write_acv                           0                       # DTB write access violations
system.cpu1.itb.write_accesses                      0                       # DTB write accesses
system.cpu1.itb.data_hits                           0                       # DTB hits
system.cpu1.itb.data_misses                         0                       # DTB misses
system.cpu1.itb.data_acv                            0                       # DTB access violations
system.cpu1.itb.data_accesses                       0                       # DTB accesses
system.cpu1.numCycles                      4510984634                       # number of cpu cycles simulated
system.cpu1.numWorkItemsStarted                     0                       # number of work items this cpu started
system.cpu1.numWorkItemsCompleted                   0                       # number of work items this cpu completed
system.cpu1.committedInsts                   25263780                       # Number of instructions committed
system.cpu1.committedOps                     25263780                       # Number of ops (including micro ops) committed
system.cpu1.num_int_alu_accesses             24415404                       # Number of integer alu accesses
system.cpu1.num_fp_alu_accesses                295839                       # Number of float alu accesses
system.cpu1.num_func_calls                     839783                       # number of times a function call or return occured
system.cpu1.num_conditional_control_insts      2515587                       # number of instructions that are conditional controls
system.cpu1.num_int_insts                    24415404                       # number of integer instructions
system.cpu1.num_fp_insts                       295839                       # number of float instructions
system.cpu1.num_int_register_reads           33936906                       # number of times the integer registers were read
system.cpu1.num_int_register_writes          17952652                       # number of times the integer registers were written
system.cpu1.num_fp_register_reads              146792                       # number of times the floating registers were read
system.cpu1.num_fp_register_writes             150199                       # number of times the floating registers were written
system.cpu1.num_mem_refs                      8658392                       # number of memory refs
system.cpu1.num_load_insts                    5054605                       # Number of load instructions
system.cpu1.num_store_insts                   3603787                       # Number of store instructions
system.cpu1.num_idle_cycles              4485714737.290673                       # Number of idle cycles
system.cpu1.num_busy_cycles              25269896.709326                       # Number of busy cycles
system.cpu1.not_idle_fraction                0.005602                       # Percentage of non-idle cycles
system.cpu1.idle_fraction                    0.994398                       # Percentage of idle cycles
system.cpu1.Branches                          3657360                       # Number of branches fetched
system.cpu1.op_class::No_OpClass               186479      0.74%      0.74% # Class of executed instruction
system.cpu1.op_class::IntAlu                 15506563     61.36%     62.10% # Class of executed instruction
system.cpu1.op_class::IntMult                   52813      0.21%     62.31% # Class of executed instruction
system.cpu1.op_class::IntDiv                        0      0.00%     62.31% # Class of executed instruction
system.cpu1.op_class::FloatAdd                  22951      0.09%     62.40% # Class of executed instruction
system.cpu1.op_class::FloatCmp                      0      0.00%     62.40% # Class of executed instruction
system.cpu1.op_class::FloatCvt                      0      0.00%     62.40% # Class of executed instruction
system.cpu1.op_class::FloatMult                     0      0.00%     62.40% # Class of executed instruction
system.cpu1.op_class::FloatDiv                   1634      0.01%     62.41% # Class of executed instruction
system.cpu1.op_class::FloatSqrt                     0      0.00%     62.41% # Class of executed instruction
system.cpu1.op_class::SimdAdd                       0      0.00%     62.41% # Class of executed instruction
system.cpu1.op_class::SimdAddAcc                    0      0.00%     62.41% # Class of executed instruction
system.cpu1.op_class::SimdAlu                       0      0.00%     62.41% # Class of executed instruction
system.cpu1.op_class::SimdCmp                       0      0.00%     62.41% # Class of executed instruction
system.cpu1.op_class::SimdCvt                       0      0.00%     62.41% # Class of executed instruction
system.cpu1.op_class::SimdMisc                      0      0.00%     62.41% # Class of executed instruction
system.cpu1.op_class::SimdMult                      0      0.00%     62.41% # Class of executed instruction
system.cpu1.op_class::SimdMultAcc                   0      0.00%     62.41% # Class of executed instruction
system.cpu1.op_class::SimdShift                     0      0.00%     62.41% # Class of executed instruction
system.cpu1.op_class::SimdShiftAcc                  0      0.00%     62.41% # Class of executed instruction
system.cpu1.op_class::SimdSqrt                      0      0.00%     62.41% # Class of executed instruction
system.cpu1.op_class::SimdFloatAdd                  0      0.00%     62.41% # Class of executed instruction
system.cpu1.op_class::SimdFloatAlu                  0      0.00%     62.41% # Class of executed instruction
system.cpu1.op_class::SimdFloatCmp                  0      0.00%     62.41% # Class of executed instruction
system.cpu1.op_class::SimdFloatCvt                  0      0.00%     62.41% # Class of executed instruction
system.cpu1.op_class::SimdFloatDiv                  0      0.00%     62.41% # Class of executed instruction
system.cpu1.op_class::SimdFloatMisc                 0      0.00%     62.41% # Class of executed instruction
system.cpu1.op_class::SimdFloatMult                 0      0.00%     62.41% # Class of executed instruction
system.cpu1.op_class::SimdFloatMultAcc              0      0.00%     62.41% # Class of executed instruction
system.cpu1.op_class::SimdFloatSqrt                 0      0.00%     62.41% # Class of executed instruction
system.cpu1.op_class::MemRead                 5209162     20.61%     83.02% # Class of executed instruction
system.cpu1.op_class::MemWrite                3661511     14.49%     97.51% # Class of executed instruction
system.cpu1.op_class::IprAccess                629375      2.49%    100.00% # Class of executed instruction
system.cpu1.op_class::InstPrefetch                  0      0.00%    100.00% # Class of executed instruction
system.cpu1.op_class::total                  25270488                       # Class of executed instruction
system.cpu1.kern.inst.arm                           0                       # number of arm instructions executed
system.cpu1.kern.inst.quiesce                    3517                       # number of quiesce instructions executed
system.cpu1.kern.inst.hwrei                    136710                       # number of hwrei instructions executed
system.cpu1.kern.ipl_count::0                   45927     39.16%     39.16% # number of times we switched to this ipl
system.cpu1.kern.ipl_count::22                   2299      1.96%     41.12% # number of times we switched to this ipl
system.cpu1.kern.ipl_count::30                   1044      0.89%     42.01% # number of times we switched to this ipl
system.cpu1.kern.ipl_count::31                  68007     57.99%    100.00% # number of times we switched to this ipl
system.cpu1.kern.ipl_count::total              117277                       # number of times we switched to this ipl
system.cpu1.kern.ipl_good::0                    44580     48.74%     48.74% # number of times we switched to this ipl from a different ipl
system.cpu1.kern.ipl_good::22                    2299      2.51%     51.26% # number of times we switched to this ipl from a different ipl
system.cpu1.kern.ipl_good::30                    1044      1.14%     52.40% # number of times we switched to this ipl from a different ipl
system.cpu1.kern.ipl_good::31                   43536     47.60%    100.00% # number of times we switched to this ipl from a different ipl
system.cpu1.kern.ipl_good::total                91459                       # number of times we switched to this ipl from a different ipl
system.cpu1.kern.ipl_ticks::0            2239162170000     99.28%     99.28% # number of cycles we spent at this ipl
system.cpu1.kern.ipl_ticks::22              112651000      0.00%     99.28% # number of cycles we spent at this ipl
system.cpu1.kern.ipl_ticks::30              121800000      0.01%     99.29% # number of cycles we spent at this ipl
system.cpu1.kern.ipl_ticks::31            16093661000      0.71%    100.00% # number of cycles we spent at this ipl
system.cpu1.kern.ipl_ticks::total        2255490282000                       # number of cycles we spent at this ipl
system.cpu1.kern.ipl_used::0                 0.970671                       # fraction of swpipl calls that actually changed the ipl
system.cpu1.kern.ipl_used::22                       1                       # fraction of swpipl calls that actually changed the ipl
system.cpu1.kern.ipl_used::30                       1                       # fraction of swpipl calls that actually changed the ipl
system.cpu1.kern.ipl_used::31                0.640169                       # fraction of swpipl calls that actually changed the ipl
[...]
system.cpu0.kern.mode_ticks::kernel         841944500     90.96%     90.96% # number of ticks spent at the given mode
system.cpu0.kern.mode_ticks::user            83673500      9.04%    100.00% # number of ticks spent at the given mode
system.cpu0.kern.mode_ticks::idle                   0      0.00%    100.00% # number of ticks spent at the given mode
system.cpu0.kern.swap_context                     107                       # number of times the context was actually changed
system.tsunami.ethernet.descDMAReads                0                       # Number of descriptors the device read w/ DMA
system.tsunami.ethernet.descDMAWrites               0                       # Number of descriptors the device wrote w/ DMA
system.tsunami.ethernet.descDmaReadBytes            0                       # number of descriptor bytes read w/ DMA
system.tsunami.ethernet.descDmaWriteBytes            0                       # number of descriptor bytes write w/ DMA
system.tsunami.ethernet.postedSwi                   0                       # number of software interrupts posted to CPU
system.tsunami.ethernet.coalescedSwi              nan                       # average number of Swi's coalesced into each post
system.tsunami.ethernet.totalSwi                    0                       # total number of Swi written to ISR
system.tsunami.ethernet.postedRxIdle                0                       # number of rxIdle interrupts posted to CPU
system.tsunami.ethernet.coalescedRxIdle           nan                       # average number of RxIdle's coalesced into each post
system.tsunami.ethernet.totalRxIdle                 0                       # total number of RxIdle written to ISR
system.tsunami.ethernet.postedRxOk                  0                       # number of RxOk interrupts posted to CPU
system.tsunami.ethernet.coalescedRxOk             nan                       # average number of RxOk's coalesced into each post
system.tsunami.ethernet.totalRxOk                   0                       # total number of RxOk written to ISR
system.tsunami.ethernet.postedRxDesc                0                       # number of RxDesc interrupts posted to CPU
system.tsunami.ethernet.coalescedRxDesc           nan                       # average number of RxDesc's coalesced into each post
system.tsunami.ethernet.totalRxDesc                 0                       # total number of RxDesc written to ISR
system.tsunami.ethernet.postedTxOk                  0                       # number of TxOk interrupts posted to CPU
system.tsunami.ethernet.coalescedTxOk             nan                       # average number of TxOk's coalesced into each post
system.tsunami.ethernet.totalTxOk                   0                       # total number of TxOk written to ISR
system.tsunami.ethernet.postedTxIdle                0                       # number of TxIdle interrupts posted to CPU
system.tsunami.ethernet.coalescedTxIdle           nan                       # average number of TxIdle's coalesced into each post
system.tsunami.ethernet.totalTxIdle                 0                       # total number of TxIdle written to ISR
system.tsunami.ethernet.postedTxDesc                0                       # number of TxDesc interrupts posted to CPU
system.tsunami.ethernet.coalescedTxDesc           nan                       # average number of TxDesc's coalesced into each post
system.tsunami.ethernet.totalTxDesc                 0                       # total number of TxDesc written to ISR
system.tsunami.ethernet.postedRxOrn                 0                       # number of RxOrn posted to CPU
system.tsunami.ethernet.coalescedRxOrn            nan                       # average number of RxOrn's coalesced into each post
system.tsunami.ethernet.totalRxOrn                  0                       # total number of RxOrn written to ISR
system.tsunami.ethernet.coalescedTotal            nan                       # average number of interrupts coalesced into each post
system.tsunami.ethernet.postedInterrupts            0                       # number of posts to CPU
system.tsunami.ethernet.droppedPackets              0                       # number of packets dropped
system.iobus.trans_dist::WriteReq                   4                       # Transaction distribution
system.iobus.trans_dist::WriteResp                  4                       # Transaction distribution
system.iobus.pkt_count_system.bridge.master::system.tsunami.cchip.pio            8                       # Packet count per connected master and slave (bytes)
system.iobus.pkt_count_system.bridge.master::total            8                       # Packet count per connected master and slave (bytes)
system.iobus.pkt_count::total                       8                       # Packet count per connected master and slave (bytes)
system.iobus.pkt_size_system.bridge.master::system.tsunami.cchip.pio           32                       # Cumulative packet size per connected master and slave (bytes)
system.iobus.pkt_size_system.bridge.master::total           32                       # Cumulative packet size per connected master and slave (bytes)
system.iobus.pkt_size::total                       32                       # Cumulative packet size per connected master and slave (bytes)
system.cpu1.dtb.fetch_hits                          0                       # ITB hits
system.cpu1.dtb.fetch_misses                        0                       # ITB misses
system.cpu1.dtb.fetch_acv                           0                       # ITB acv
system.cpu1.dtb.fetch_accesses                      0                       # ITB accesses
system.cpu1.dtb.read_hits                       38999                       # DTB read hits
system.cpu1.dtb.read_misses                       123                       # DTB read misses
system.cpu1.dtb.read_acv                            0                       # DTB read access violations
system.cpu1.dtb.read_accesses                   11611                       # DTB read accesses
system.cpu1.dtb.write_hits                      32077                       # DTB write hits
system.cpu1.dtb.write_misses                       22                       # DTB write misses
system.cpu1.dtb.write_acv                          14                       # DTB write access violations
system.cpu1.dtb.write_accesses                   7011                       # DTB write accesses
system.cpu1.dtb.data_hits                       71076                       # DTB hits
system.cpu1.dtb.data_misses                       145                       # DTB misses
system.cpu1.dtb.data_acv                           14                       # DTB access violations
system.cpu1.dtb.data_accesses                   18622                       # DTB accesses
system.cpu1.itb.fetch_hits                      60233                       # ITB hits
system.cpu1.itb.fetch_misses                      118                       # ITB misses
system.cpu1.itb.fetch_acv                           0                       # ITB acv
system.cpu1.itb.fetch_accesses                  60351                       # ITB accesses
system.cpu1.itb.read_hits                           0                       # DTB read hits
system.cpu1.itb.read_misses                         0                       # DTB read misses
system.cpu1.itb.read_acv                            0                       # DTB read access violations
system.cpu1.itb.read_accesses                       0                       # DTB read accesses
system.cpu1.itb.write_hits                          0                       # DTB write hits
system.cpu1.itb.write_misses                        0                       # DTB write misses
system.cpu1.itb.write_acv                           0                       # DTB write access violations
system.cpu1.itb.write_accesses                      0                       # DTB write accesses
system.cpu1.itb.data_hits                           0                       # DTB hits
system.cpu1.itb.data_misses                         0                       # DTB misses
system.cpu1.itb.data_acv                            0                       # DTB access violations
system.cpu1.itb.data_accesses                       0                       # DTB accesses
system.cpu1.numCycles                          322299                       # number of cpu cycles simulated
system.cpu1.numWorkItemsStarted                     0                       # number of work items this cpu started
system.cpu1.numWorkItemsCompleted                   0                       # number of work items this cpu completed
system.cpu1.committedInsts                     193260                       # Number of instructions committed
system.cpu1.committedOps                       193260                       # Number of ops (including micro ops) committed
system.cpu1.num_int_alu_accesses               186511                       # Number of integer alu accesses
system.cpu1.num_fp_alu_accesses                   261                       # Number of float alu accesses
system.cpu1.num_func_calls                       4871                       # number of times a function call or return occured
system.cpu1.num_conditional_control_insts        19667                       # number of instructions that are conditional controls
system.cpu1.num_int_insts                      186511                       # number of integer instructions
system.cpu1.num_fp_insts                          261                       # number of float instructions
system.cpu1.num_int_register_reads             257086                       # number of times the integer registers were read
system.cpu1.num_int_register_writes            132991                       # number of times the integer registers were written
system.cpu1.num_fp_register_reads                 135                       # number of times the floating registers were read
system.cpu1.num_fp_register_writes                102                       # number of times the floating registers were written
system.cpu1.num_mem_refs                        71457                       # number of memory refs
system.cpu1.num_load_insts                      39288                       # Number of load instructions
system.cpu1.num_store_insts                     32169                       # Number of store instructions
system.cpu1.num_idle_cycles              238137.279571                       # Number of idle cycles
system.cpu1.num_busy_cycles              84161.720429                       # Number of busy cycles
system.cpu1.not_idle_fraction                0.261129                       # Percentage of non-idle cycles
system.cpu1.idle_fraction                    0.738871                       # Percentage of idle cycles
system.cpu1.Branches                            26046                       # Number of branches fetched
system.cpu1.op_class::No_OpClass                 3448      1.78%      1.78% # Class of executed instruction
system.cpu1.op_class::IntAlu                   112961     58.40%     60.18% # Class of executed instruction
system.cpu1.op_class::IntMult                     174      0.09%     60.27% # Class of executed instruction
system.cpu1.op_class::IntDiv                        0      0.00%     60.27% # Class of executed instruction
system.cpu1.op_class::FloatAdd                     30      0.02%     60.29% # Class of executed instruction
system.cpu1.op_class::FloatCmp                      0      0.00%     60.29% # Class of executed instruction
system.cpu1.op_class::FloatCvt                      0      0.00%     60.29% # Class of executed instruction
system.cpu1.op_class::FloatMult                     0      0.00%     60.29% # Class of executed instruction
system.cpu1.op_class::FloatDiv                      0      0.00%     60.29% # Class of executed instruction
system.cpu1.op_class::FloatSqrt                     0      0.00%     60.29% # Class of executed instruction
system.cpu1.op_class::SimdAdd                       0      0.00%     60.29% # Class of executed instruction
system.cpu1.op_class::SimdAddAcc                    0      0.00%     60.29% # Class of executed instruction
system.cpu1.op_class::SimdAlu                       0      0.00%     60.29% # Class of executed instruction
system.cpu1.op_class::SimdCmp                       0      0.00%     60.29% # Class of executed instruction
system.cpu1.op_class::SimdCvt                       0      0.00%     60.29% # Class of executed instruction
system.cpu1.op_class::SimdMisc                      0      0.00%     60.29% # Class of executed instruction
system.cpu1.op_class::SimdMult                      0      0.00%     60.29% # Class of executed instruction
system.cpu1.op_class::SimdMultAcc                   0      0.00%     60.29% # Class of executed instruction
system.cpu1.op_class::SimdShift                     0      0.00%     60.29% # Class of executed instruction
system.cpu1.op_class::SimdShiftAcc                  0      0.00%     60.29% # Class of executed instruction
system.cpu1.op_class::SimdSqrt                      0      0.00%     60.29% # Class of executed instruction
system.cpu1.op_class::SimdFloatAdd                  0      0.00%     60.29% # Class of executed instruction
system.cpu1.op_class::SimdFloatAlu                  0      0.00%     60.29% # Class of executed instruction
system.cpu1.op_class::SimdFloatCmp                  0      0.00%     60.29% # Class of executed instruction
system.cpu1.op_class::SimdFloatCvt                  0      0.00%     60.29% # Class of executed instruction
system.cpu1.op_class::SimdFloatDiv                  0      0.00%     60.29% # Class of executed instruction
system.cpu1.op_class::SimdFloatMisc                 0      0.00%     60.29% # Class of executed instruction
system.cpu1.op_class::SimdFloatMult                 0      0.00%     60.29% # Class of executed instruction
system.cpu1.op_class::SimdFloatMultAcc              0      0.00%     60.29% # Class of executed instruction
system.cpu1.op_class::SimdFloatSqrt                 0      0.00%     60.29% # Class of executed instruction
system.cpu1.op_class::MemRead                   40337     20.85%     81.15% # Class of executed instruction
system.cpu1.op_class::MemWrite                  32448     16.78%     97.92% # Class of executed instruction
system.cpu1.op_class::IprAccess                  4021      2.08%    100.00% # Class of executed instruction
system.cpu1.op_class::InstPrefetch                  0      0.00%    100.00% # Class of executed instruction
system.cpu1.op_class::total                    193419                       # Class of executed instruction
system.cpu1.kern.inst.arm                           0                       # number of arm instructions executed
system.cpu1.kern.inst.quiesce                       2                       # number of quiesce instructions executed
system.cpu1.kern.inst.hwrei                       677                       # number of hwrei instructions executed
system.cpu1.kern.ipl_count::0                     176     48.35%     48.35% # number of times we switched to this ipl
system.cpu1.kern.ipl_count::30                      1      0.27%     48.63% # number of times we switched to this ipl
system.cpu1.kern.ipl_count::31                    187     51.37%    100.00% # number of times we switched to this ipl
system.cpu1.kern.ipl_count::total                 364                       # number of times we switched to this ipl
system.cpu1.kern.ipl_good::0                      176     50.00%     50.00% # number of times we switched to this ipl from a different ipl
system.cpu1.kern.ipl_good::30                       1      0.28%     50.28% # number of times we switched to this ipl from a different ipl
system.cpu1.kern.ipl_good::31                     175     49.72%    100.00% # number of times we switched to this ipl from a different ipl
system.cpu1.kern.ipl_good::total                  352                       # number of times we switched to this ipl from a different ipl
system.cpu1.kern.ipl_ticks::0               148156500     91.78%     91.78% # number of cycles we spent at this ipl
system.cpu1.kern.ipl_ticks::30                 173500      0.11%     91.89% # number of cycles we spent at this ipl
system.cpu1.kern.ipl_ticks::31               13089000      8.11%    100.00% # number of cycles we spent at this ipl
system.cpu1.kern.ipl_ticks::total           161419000                       # number of cycles we spent at this ipl
system.cpu1.kern.ipl_used::0                        1                       # fraction of swpipl calls that actually changed the ipl
system.cpu1.kern.ipl_used::30                       1                       # fraction of swpipl calls that actually changed the ipl
system.cpu1.kern.ipl_used::31                0.935829                       # fraction of swpipl calls that actually changed the ipl
system.cpu1.kern.ipl_used::total             0.967033                       # fraction of swpipl calls that actually changed the ipl
system.cpu1.kern.syscall::2                         1     50.00%     50.00% # number of syscalls executed
system.cpu1.kern.syscall::3                         1     50.00%    100.00% # number of syscalls executed
system.cpu1.kern.syscall::total                     2                       # number of syscalls executed
system.cpu1.kern.callpal::wripir                    1      0.25%      0.25% # number of callpals executed
system.cpu1.kern.callpal::swpctx                   18      4.51%      4.76% # number of callpals executed
system.cpu1.kern.callpal::tbi                       3      0.75%      5.51% # number of callpals executed
system.cpu1.kern.callpal::swpipl                  335     83.96%     89.47% # number of callpals executed
system.cpu1.kern.callpal::rdusp                     1      0.25%     89.72% # number of callpals executed
system.cpu1.kern.callpal::rti                      28      7.02%     96.74% # number of callpals executed
system.cpu1.kern.callpal::callsys                  12      3.01%     99.75% # number of callpals executed
system.cpu1.kern.callpal::imb                       1      0.25%    100.00% # number of callpals executed
system.cpu1.kern.callpal::total                   399                       # number of callpals executed
system.cpu1.kern.mode_switch::kernel               45                       # number of protection mode switches
system.cpu1.kern.mode_switch::user                 27                       # number of protection mode switches
system.cpu1.kern.mode_switch::idle                  2                       # number of protection mode switches
system.cpu1.kern.mode_good::kernel                 28                      
system.cpu1.kern.mode_good::user                   27                      
system.cpu1.kern.mode_good::idle                    1                      
system.cpu1.kern.mode_switch_good::kernel     0.622222                       # fraction of useful protection mode switches
system.cpu1.kern.mode_switch_good::user             1                       # fraction of useful protection mode switches
system.cpu1.kern.mode_switch_good::idle      0.500000                       # fraction of useful protection mode switches
system.cpu1.kern.mode_switch_good::total     0.756757                       # fraction of useful protection mode switches
system.cpu1.kern.mode_ticks::kernel          68776500     71.08%     71.08% # number of ticks spent at the given mode
system.cpu1.kern.mode_ticks::user            27985000     28.92%    100.00% # number of ticks spent at the given mode
system.cpu1.kern.mode_ticks::idle                   0      0.00%    100.00% # number of ticks spent at the given mode
system.cpu1.kern.swap_context                      18                       # number of times the context was actually changed

---------- End Simulation Statistics   ----------
