
---------- Begin Simulation Statistics ----------
sim_seconds                                  2.651208                       # Number of seconds simulated
sim_ticks                                2651208052000                       # Number of ticks simulated
final_tick                               2651208052000                       # Number of ticks from beginning of simulation (restored from checkpoints and never reset)
sim_freq                                 1000000000000                       # Frequency of simulated ticks
host_inst_rate                                 238064                       # Simulator instruction rate (inst/s)
host_op_rate                                   238064                       # Simulator op (including micro ops) rate (op/s)
host_tick_rate                             6997968901                       # Simulator tick rate (ticks/s)
host_mem_usage                                 457452                       # Number of bytes of host memory used
host_seconds                                   378.85                       # Real time elapsed on the host
sim_insts                                    90191407                       # Number of instructions simulated
sim_ops                                      90191407                       # Number of ops (including micro ops) simulated
system.voltage_domain.voltage                       1                       # Voltage in Volts
system.clk_domain.clock                          1000                       # Clock period in ticks
system.mem_ctrls.bytes_read::cpu.inst        93350336                       # Number of bytes read from this memory
system.mem_ctrls.bytes_read::cpu.data       185321728                       # Number of bytes read from this memory
system.mem_ctrls.bytes_read::tsunami.ide         4800                       # Number of bytes read from this memory
system.mem_ctrls.bytes_read::total          278676864                       # Number of bytes read from this memory
system.mem_ctrls.bytes_inst_read::cpu.inst     93350336                       # Number of instructions bytes read from this memory
system.mem_ctrls.bytes_inst_read::total      93350336                       # Number of instructions bytes read from this memory
system.mem_ctrls.bytes_written::writebacks     30981632                       # Number of bytes written to this memory
system.mem_ctrls.bytes_written::tsunami.ide      2832384                       # Number of bytes written to this memory
system.mem_ctrls.bytes_written::total        33814016                       # Number of bytes written to this memory
system.mem_ctrls.num_reads::cpu.inst          1458599                       # Number of read requests responded to by this memory
system.mem_ctrls.num_reads::cpu.data          2895652                       # Number of read requests responded to by this memory
system.mem_ctrls.num_reads::tsunami.ide            75                       # Number of read requests responded to by this memory
system.mem_ctrls.num_reads::total             4354326                       # Number of read requests responded to by this memory
system.mem_ctrls.num_writes::writebacks        484088                       # Number of write requests responded to by this memory
system.mem_ctrls.num_writes::tsunami.ide        44256                       # Number of write requests responded to by this memory
system.mem_ctrls.num_writes::total             528344                       # Number of write requests responded to by this memory
system.mem_ctrls.bw_read::cpu.inst           35210491                       # Total read bandwidth from this memory (bytes/s)
system.mem_ctrls.bw_read::cpu.data           69900862                       # Total read bandwidth from this memory (bytes/s)
system.mem_ctrls.bw_read::tsunami.ide            1810                       # Total read bandwidth from this memory (bytes/s)
system.mem_ctrls.bw_read::total             105113163                       # Total read bandwidth from this memory (bytes/s)
system.mem_ctrls.bw_inst_read::cpu.inst      35210491                       # Instruction read bandwidth from this memory (bytes/s)
system.mem_ctrls.bw_inst_read::total         35210491                       # Instruction read bandwidth from this memory (bytes/s)
system.mem_ctrls.bw_write::writebacks        11685855                       # Write bandwidth from this memory (bytes/s)
system.mem_ctrls.bw_write::tsunami.ide        1068337                       # Write bandwidth from this memory (bytes/s)
system.mem_ctrls.bw_write::total             12754192                       # Write bandwidth from this memory (bytes/s)
system.mem_ctrls.bw_total::writebacks        11685855                       # Total bandwidth to/from this memory (bytes/s)
system.mem_ctrls.bw_total::cpu.inst          35210491                       # Total bandwidth to/from this memory (bytes/s)
system.mem_ctrls.bw_total::cpu.data          69900862                       # Total bandwidth to/from this memory (bytes/s)
system.mem_ctrls.bw_total::tsunami.ide        1070148                       # Total bandwidth to/from this memory (bytes/s)
system.mem_ctrls.bw_total::total            117867355                       # Total bandwidth to/from this memory (bytes/s)
system.mem_ctrls.readReqs                     4354326                       # Number of read requests accepted
system.mem_ctrls.writeReqs                     528344                       # Number of write requests accepted
system.mem_ctrls.readBursts                   4354326                       # Number of DRAM read bursts, including those serviced by the write queue
system.mem_ctrls.writeBursts                   528344                       # Number of DRAM write bursts, including those merged in the write queue
system.mem_ctrls.bytesReadDRAM              276342528                       # Total number of bytes read from DRAM
system.mem_ctrls.bytesReadWrQ                 2334336                       # Total number of bytes read from write queue
system.mem_ctrls.bytesWritten                33414592                       # Total number of bytes written to DRAM
system.mem_ctrls.bytesReadSys               278676864                       # Total read bytes from the system interface side
system.mem_ctrls.bytesWrittenSys             33814016                       # Total written bytes from the system interface side
system.mem_ctrls.servicedByWrQ                  36474                       # Number of DRAM read bursts serviced by the write queue
system.mem_ctrls.mergedWrBursts                  6218                       # Number of DRAM write bursts merged with an existing one
system.mem_ctrls.neitherReadNorWriteReqs          726                       # Number of requests that are neither read nor write
system.mem_ctrls.perBankRdBursts::0            280619                       # Per bank write bursts
system.mem_ctrls.perBankRdBursts::1            277502                       # Per bank write bursts
system.mem_ctrls.perBankRdBursts::2            265054                       # Per bank write bursts
system.mem_ctrls.perBankRdBursts::3            181777                       # Per bank write bursts
system.mem_ctrls.perBankRdBursts::4            208594                       # Per bank write bursts
system.mem_ctrls.perBankRdBursts::5            210006                       # Per bank write bursts
system.mem_ctrls.perBankRdBursts::6            275213                       # Per bank write bursts
system.mem_ctrls.perBankRdBursts::7            284506                       # Per bank write bursts
system.mem_ctrls.perBankRdBursts::8            296826                       # Per bank write bursts
system.mem_ctrls.perBankRdBursts::9            266019                       # Per bank write bursts
system.mem_ctrls.perBankRdBursts::10           283980                       # Per bank write bursts
system.mem_ctrls.perBankRdBursts::11           356915                       # Per bank write bursts
system.mem_ctrls.perBankRdBursts::12           280323                       # Per bank write bursts
system.mem_ctrls.perBankRdBursts::13           338333                       # Per bank write bursts
system.mem_ctrls.perBankRdBursts::14           245374                       # Per bank write bursts
system.mem_ctrls.perBankRdBursts::15           266811                       # Per bank write bursts
system.mem_ctrls.perBankWrBursts::0             24982                       # Per bank write bursts
system.mem_ctrls.perBankWrBursts::1             37719                       # Per bank write bursts
system.mem_ctrls.perBankWrBursts::2             21804                       # Per bank write bursts
system.mem_ctrls.perBankWrBursts::3             19738                       # Per bank write bursts
system.mem_ctrls.perBankWrBursts::4             18748                       # Per bank write bursts
system.mem_ctrls.perBankWrBursts::5             26499                       # Per bank write bursts
system.mem_ctrls.perBankWrBursts::6             37495                       # Per bank write bursts
system.mem_ctrls.perBankWrBursts::7             65457                       # Per bank write bursts
system.mem_ctrls.perBankWrBursts::8             27385                       # Per bank write bursts
system.mem_ctrls.perBankWrBursts::9             26740                       # Per bank write bursts
system.mem_ctrls.perBankWrBursts::10            26699                       # Per bank write bursts
system.mem_ctrls.perBankWrBursts::11            61261                       # Per bank write bursts
system.mem_ctrls.perBankWrBursts::12            30179                       # Per bank write bursts
system.mem_ctrls.perBankWrBursts::13            44456                       # Per bank write bursts
system.mem_ctrls.perBankWrBursts::14            22840                       # Per bank write bursts
system.mem_ctrls.perBankWrBursts::15            30101                       # Per bank write bursts
system.mem_ctrls.numRdRetry                         0                       # Number of times read queue was full causing retry
system.mem_ctrls.numWrRetry                        46                       # Number of times write queue was full causing retry
system.mem_ctrls.totGap                  2651207960000                       # Total gap between requests
system.mem_ctrls.readPktSize::0                     0                       # Read request sizes (log2)
system.mem_ctrls.readPktSize::1                     0                       # Read request sizes (log2)
system.mem_ctrls.readPktSize::2                     0                       # Read request sizes (log2)
system.mem_ctrls.readPktSize::3                     0                       # Read request sizes (log2)
system.mem_ctrls.readPktSize::4                     0                       # Read request sizes (log2)
system.mem_ctrls.readPktSize::5                     0                       # Read request sizes (log2)
system.mem_ctrls.readPktSize::6               4354326                       # Read request sizes (log2)
system.mem_ctrls.writePktSize::0                    0                       # Write request sizes (log2)
system.mem_ctrls.writePktSize::1                    0                       # Write request sizes (log2)
system.mem_ctrls.writePktSize::2                    0                       # Write request sizes (log2)
system.mem_ctrls.writePktSize::3                    0                       # Write request sizes (log2)
system.mem_ctrls.writePktSize::4                    0                       # Write request sizes (log2)
system.mem_ctrls.writePktSize::5                    0                       # Write request sizes (log2)
system.mem_ctrls.writePktSize::6               528344                       # Write request sizes (log2)
system.mem_ctrls.rdQLenPdf::0                 3560805                       # What read queue length does an incoming req see
system.mem_ctrls.rdQLenPdf::1                  652822                       # What read queue length does an incoming req see
system.mem_ctrls.rdQLenPdf::2                   87785                       # What read queue length does an incoming req see
system.mem_ctrls.rdQLenPdf::3                   15512                       # What read queue length does an incoming req see
system.mem_ctrls.rdQLenPdf::4                     877                       # What read queue length does an incoming req see
system.mem_ctrls.rdQLenPdf::5                      27                       # What read queue length does an incoming req see
system.mem_ctrls.rdQLenPdf::6                       5                       # What read queue length does an incoming req see
system.mem_ctrls.rdQLenPdf::7                       4                       # What read queue length does an incoming req see
system.mem_ctrls.rdQLenPdf::8                       2                       # What read queue length does an incoming req see
system.mem_ctrls.rdQLenPdf::9                       1                       # What read queue length does an incoming req see
system.mem_ctrls.rdQLenPdf::10                      1                       # What read queue length does an incoming req see
system.mem_ctrls.rdQLenPdf::11                      1                       # What read queue length does an incoming req see
system.mem_ctrls.rdQLenPdf::12                      1                       # What read queue length does an incoming req see
system.mem_ctrls.rdQLenPdf::13                      1                       # What read queue length does an incoming req see
system.mem_ctrls.rdQLenPdf::14                      1                       # What read queue length does an incoming req see
system.mem_ctrls.rdQLenPdf::15                      1                       # What read queue length does an incoming req see
system.mem_ctrls.rdQLenPdf::16                      1                       # What read queue length does an incoming req see
system.mem_ctrls.rdQLenPdf::17                      1                       # What read queue length does an incoming req see
system.mem_ctrls.rdQLenPdf::18                      1                       # What read queue length does an incoming req see
system.mem_ctrls.rdQLenPdf::19                      1                       # What read queue length does an incoming req see
system.mem_ctrls.rdQLenPdf::20                      2                       # What read queue length does an incoming req see
system.mem_ctrls.rdQLenPdf::21                      0                       # What read queue length does an incoming req see
system.mem_ctrls.rdQLenPdf::22                      0                       # What read queue length does an incoming req see
system.mem_ctrls.rdQLenPdf::23                      0                       # What read queue length does an incoming req see
system.mem_ctrls.rdQLenPdf::24                      0                       # What read queue length does an incoming req see
system.mem_ctrls.rdQLenPdf::25                      0                       # What read queue length does an incoming req see
system.mem_ctrls.rdQLenPdf::26                      0                       # What read queue length does an incoming req see
system.mem_ctrls.rdQLenPdf::27                      0                       # What read queue length does an incoming req see
system.mem_ctrls.rdQLenPdf::28                      0                       # What read queue length does an incoming req see
system.mem_ctrls.rdQLenPdf::29                      0                       # What read queue length does an incoming req see
system.mem_ctrls.rdQLenPdf::30                      0                       # What read queue length does an incoming req see
system.mem_ctrls.rdQLenPdf::31                      0                       # What read queue length does an incoming req see
system.mem_ctrls.wrQLenPdf::0                       1                       # What write queue length does an incoming req see
system.mem_ctrls.wrQLenPdf::1                       1                       # What write queue length does an incoming req see
system.mem_ctrls.wrQLenPdf::2                       1                       # What write queue length does an incoming req see
system.mem_ctrls.wrQLenPdf::3                       1                       # What write queue length does an incoming req see
system.mem_ctrls.wrQLenPdf::4                       1                       # What write queue length does an incoming req see
system.mem_ctrls.wrQLenPdf::5                       1                       # What write queue length does an incoming req see
system.mem_ctrls.wrQLenPdf::6                       1                       # What write queue length does an incoming req see
system.mem_ctrls.wrQLenPdf::7                       1                       # What write queue length does an incoming req see
system.mem_ctrls.wrQLenPdf::8                       1                       # What write queue length does an incoming req see
system.mem_ctrls.wrQLenPdf::9                       1                       # What write queue length does an incoming req see
system.mem_ctrls.wrQLenPdf::10                      1                       # What write queue length does an incoming req see
system.mem_ctrls.wrQLenPdf::11                      1                       # What write queue length does an incoming req see
system.mem_ctrls.wrQLenPdf::12                      1                       # What write queue length does an incoming req see
system.mem_ctrls.wrQLenPdf::13                      1                       # What write queue length does an incoming req see
system.mem_ctrls.wrQLenPdf::14                      1                       # What write queue length does an incoming req see
system.mem_ctrls.wrQLenPdf::15                   6608                       # What write queue length does an incoming req see
system.mem_ctrls.wrQLenPdf::16                   7272                       # What write queue length does an incoming req see
system.mem_ctrls.wrQLenPdf::17                  20946                       # What write queue length does an incoming req see
system.mem_ctrls.wrQLenPdf::18                  26673                       # What write queue length does an incoming req see
system.mem_ctrls.wrQLenPdf::19                  29277                       # What write queue length does an incoming req see
system.mem_ctrls.wrQLenPdf::20                  30311                       # What write queue length does an incoming req see
system.mem_ctrls.wrQLenPdf::21                  31625                       # What write queue length does an incoming req see
system.mem_ctrls.wrQLenPdf::22                  31460                       # What write queue length does an incoming req see
system.mem_ctrls.wrQLenPdf::23                  33191                       # What write queue length does an incoming req see
system.mem_ctrls.wrQLenPdf::24                  33015                       # What write queue length does an incoming req see
system.mem_ctrls.wrQLenPdf::25                  33476                       # What write queue length does an incoming req see
system.mem_ctrls.wrQLenPdf::26                  32658                       # What write queue length does an incoming req see
system.mem_ctrls.wrQLenPdf::27                  32483                       # What write queue length does an incoming req see
system.mem_ctrls.wrQLenPdf::28                  33153                       # What write queue length does an incoming req see
system.mem_ctrls.wrQLenPdf::29                  32266                       # What write queue length does an incoming req see
system.mem_ctrls.wrQLenPdf::30                  32372                       # What write queue length does an incoming req see
system.mem_ctrls.wrQLenPdf::31                  32099                       # What write queue length does an incoming req see
system.mem_ctrls.wrQLenPdf::32                  31906                       # What write queue length does an incoming req see
system.mem_ctrls.wrQLenPdf::33                   1271                       # What write queue length does an incoming req see
system.mem_ctrls.wrQLenPdf::34                   1002                       # What write queue length does an incoming req see
system.mem_ctrls.wrQLenPdf::35                    881                       # What write queue length does an incoming req see
system.mem_ctrls.wrQLenPdf::36                    720                       # What write queue length does an incoming req see
system.mem_ctrls.wrQLenPdf::37                    628                       # What write queue length does an incoming req see
system.mem_ctrls.wrQLenPdf::38                    506                       # What write queue length does an incoming req see
system.mem_ctrls.wrQLenPdf::39                    418                       # What write queue length does an incoming req see
system.mem_ctrls.wrQLenPdf::40                    399                       # What write queue length does an incoming req see
system.mem_ctrls.wrQLenPdf::41                    373                       # What write queue length does an incoming req see
system.mem_ctrls.wrQLenPdf::42                    349                       # What write queue length does an incoming req see
system.mem_ctrls.wrQLenPdf::43                    321                       # What write queue length does an incoming req see
system.mem_ctrls.wrQLenPdf::44                    320                       # What write queue length does an incoming req see
system.mem_ctrls.wrQLenPdf::45                    303                       # What write queue length does an incoming req see
system.mem_ctrls.wrQLenPdf::46                    299                       # What write queue length does an incoming req see
system.mem_ctrls.wrQLenPdf::47                    258                       # What write queue length does an incoming req see
system.mem_ctrls.wrQLenPdf::48                    233                       # What write queue length does an incoming req see
system.mem_ctrls.wrQLenPdf::49                    228                       # What write queue length does an incoming req see
system.mem_ctrls.wrQLenPdf::50                    206                       # What write queue length does an incoming req see
system.mem_ctrls.wrQLenPdf::51                    193                       # What write queue length does an incoming req see
system.mem_ctrls.wrQLenPdf::52                    184                       # What write queue length does an incoming req see
system.mem_ctrls.wrQLenPdf::53                    185                       # What write queue length does an incoming req see
system.mem_ctrls.wrQLenPdf::54                    186                       # What write queue length does an incoming req see
system.mem_ctrls.wrQLenPdf::55                    181                       # What write queue length does an incoming req see
system.mem_ctrls.wrQLenPdf::56                    226                       # What write queue length does an incoming req see
system.mem_ctrls.wrQLenPdf::57                    260                       # What write queue length does an incoming req see
system.mem_ctrls.wrQLenPdf::58                    273                       # What write queue length does an incoming req see
system.mem_ctrls.wrQLenPdf::59                    266                       # What write queue length does an incoming req see
system.mem_ctrls.wrQLenPdf::60                    224                       # What write queue length does an incoming req see
system.mem_ctrls.wrQLenPdf::61                    181                       # What write queue length does an incoming req see
system.mem_ctrls.wrQLenPdf::62                    125                       # What write queue length does an incoming req see
system.mem_ctrls.wrQLenPdf::63                    121                       # What write queue length does an incoming req see
system.mem_ctrls.bytesPerActivate::samples      1129705                       # Bytes accessed per row activation
system.mem_ctrls.bytesPerActivate::mean    274.192077                       # Bytes accessed per row activation
system.mem_ctrls.bytesPerActivate::gmean   160.377373                       # Bytes accessed per row activation
system.mem_ctrls.bytesPerActivate::stdev   313.768987                       # Bytes accessed per row activation
system.mem_ctrls.bytesPerActivate::0-127       470815     41.68%     41.68% # Bytes accessed per row activation
system.mem_ctrls.bytesPerActivate::128-255       298486     26.42%     68.10% # Bytes accessed per row activation
system.mem_ctrls.bytesPerActivate::256-383        89888      7.96%     76.05% # Bytes accessed per row activation
system.mem_ctrls.bytesPerActivate::384-511        56199      4.97%     81.03% # Bytes accessed per row activation
system.mem_ctrls.bytesPerActivate::512-639        39151      3.47%     84.49% # Bytes accessed per row activation
system.mem_ctrls.bytesPerActivate::640-767        24172      2.14%     86.63% # Bytes accessed per row activation
system.mem_ctrls.bytesPerActivate::768-895        18337      1.62%     88.26% # Bytes accessed per row activation
system.mem_ctrls.bytesPerActivate::896-1023        14575      1.29%     89.55% # Bytes accessed per row activation
system.mem_ctrls.bytesPerActivate::1024-1151       118082     10.45%    100.00% # Bytes accessed per row activation
system.mem_ctrls.bytesPerActivate::total      1129705                       # Bytes accessed per row activation
system.mem_ctrls.rdPerTurnAround::samples        31277                       # Reads before turning the bus around for writes
system.mem_ctrls.rdPerTurnAround::mean     138.050580                       # Reads before turning the bus around for writes
system.mem_ctrls.rdPerTurnAround::stdev   5837.791581                       # Reads before turning the bus around for writes
system.mem_ctrls.rdPerTurnAround::0-32767        31276    100.00%    100.00% # Reads before turning the bus around for writes
system.mem_ctrls.rdPerTurnAround::1.01581e+06-1.04858e+06            1      0.00%    100.00% # Reads before turning the bus around for writes
system.mem_ctrls.rdPerTurnAround::total         31277                       # Reads before turning the bus around for writes
system.mem_ctrls.wrPerTurnAround::samples        31277                       # Writes before turning the bus around for reads
system.mem_ctrls.wrPerTurnAround::mean      16.692873                       # Writes before turning the bus around for reads
system.mem_ctrls.wrPerTurnAround::gmean     16.580724                       # Writes before turning the bus around for reads
system.mem_ctrls.wrPerTurnAround::stdev      3.132083                       # Writes before turning the bus around for reads
system.mem_ctrls.wrPerTurnAround::16-19         30796     98.46%     98.46% # Writes before turning the bus around for reads
system.mem_ctrls.wrPerTurnAround::20-23           255      0.82%     99.28% # Writes before turning the bus around for reads
system.mem_ctrls.wrPerTurnAround::24-27            45      0.14%     99.42% # Writes before turning the bus around for reads
system.mem_ctrls.wrPerTurnAround::28-31            71      0.23%     99.65% # Writes before turning the bus around for reads
system.mem_ctrls.wrPerTurnAround::32-35            33      0.11%     99.75% # Writes before turning the bus around for reads
system.mem_ctrls.wrPerTurnAround::36-39            13      0.04%     99.80% # Writes before turning the bus around for reads
system.mem_ctrls.wrPerTurnAround::40-43             9      0.03%     99.82% # Writes before turning the bus around for reads
system.mem_ctrls.wrPerTurnAround::44-47             8      0.03%     99.85% # Writes before turning the bus around for reads
system.mem_ctrls.wrPerTurnAround::48-51             6      0.02%     99.87% # Writes before turning the bus around for reads
system.mem_ctrls.wrPerTurnAround::52-55             4      0.01%     99.88% # Writes before turning the bus around for reads
system.mem_ctrls.wrPerTurnAround::56-59             2      0.01%     99.89% # Writes before turning the bus around for reads
system.mem_ctrls.wrPerTurnAround::60-63             1      0.00%     99.89% # Writes before turning the bus around for reads
system.mem_ctrls.wrPerTurnAround::64-67             1      0.00%     99.89% # Writes before turning the bus around for reads
system.mem_ctrls.wrPerTurnAround::72-75             2      0.01%     99.90% # Writes before turning the bus around for reads
system.mem_ctrls.wrPerTurnAround::80-83             2      0.01%     99.91% # Writes before turning the bus around for reads
system.mem_ctrls.wrPerTurnAround::84-87             4      0.01%     99.92% # Writes before turning the bus around for reads
system.mem_ctrls.wrPerTurnAround::88-91             1      0.00%     99.92% # Writes before turning the bus around for reads
system.mem_ctrls.wrPerTurnAround::92-95             1      0.00%     99.93% # Writes before turning the bus around for reads
system.mem_ctrls.wrPerTurnAround::96-99            17      0.05%     99.98% # Writes before turning the bus around for reads
system.mem_ctrls.wrPerTurnAround::100-103            2      0.01%     99.99% # Writes before turning the bus around for reads
system.mem_ctrls.wrPerTurnAround::104-107            1      0.00%     99.99% # Writes before turning the bus around for reads
system.mem_ctrls.wrPerTurnAround::108-111            1      0.00%     99.99% # Writes before turning the bus around for reads
system.mem_ctrls.wrPerTurnAround::136-139            1      0.00%    100.00% # Writes before turning the bus around for reads
system.mem_ctrls.wrPerTurnAround::140-143            1      0.00%    100.00% # Writes before turning the bus around for reads
system.mem_ctrls.wrPerTurnAround::total         31277                       # Writes before turning the bus around for reads
system.mem_ctrls.totQLat                  40359645250                       # Total ticks spent queuing
system.mem_ctrls.totMemAccLat            121319370250                       # Total ticks spent from burst creation until serviced by the DRAM
system.mem_ctrls.totBusLat                21589260000                       # Total ticks spent in databus transfers
system.mem_ctrls.avgQLat                      9347.16                       # Average queueing delay per DRAM burst
system.mem_ctrls.avgBusLat                    5000.00                       # Average bus latency per DRAM burst
system.mem_ctrls.avgMemAccLat                28097.16                       # Average memory access latency per DRAM burst
system.mem_ctrls.avgRdBW                       104.23                       # Average DRAM read bandwidth in MiByte/s
system.mem_ctrls.avgWrBW                        12.60                       # Average achieved write bandwidth in MiByte/s
system.mem_ctrls.avgRdBWSys                    105.11                       # Average system read bandwidth in MiByte/s
system.mem_ctrls.avgWrBWSys                     12.75                       # Average system write bandwidth in MiByte/s
system.mem_ctrls.peakBW                      12800.00                       # Theoretical peak bandwidth in MiByte/s
system.mem_ctrls.busUtil                         0.91                       # Data bus utilization in percentage
system.mem_ctrls.busUtilRead                     0.81                       # Data bus utilization in percentage for reads
system.mem_ctrls.busUtilWrite                    0.10                       # Data bus utilization in percentage for writes
system.mem_ctrls.avgRdQLen                       1.03                       # Average read queue length when enqueuing
system.mem_ctrls.avgWrQLen                      25.56                       # Average write queue length when enqueuing
system.mem_ctrls.readRowHits                  3358239                       # Number of row buffer hits during reads
system.mem_ctrls.writeRowHits                  352005                       # Number of row buffer hits during writes
system.mem_ctrls.readRowHitRate                 77.78                       # Row buffer hit rate for reads
system.mem_ctrls.writeRowHitRate                67.42                       # Row buffer hit rate for writes
system.mem_ctrls.avgGap                     542983.24                       # Average gap between requests
system.mem_ctrls.pageHitRate                    76.66                       # Row buffer hit rate, read and write combined
system.mem_ctrls.memoryStateTime::IDLE   2161259372500                       # Time in different power states
system.mem_ctrls.memoryStateTime::REF     88529480000                       # Time in different power states
system.mem_ctrls.memoryStateTime::PRE_PDN            0                       # Time in different power states
system.mem_ctrls.memoryStateTime::ACT    401413973750                       # Time in different power states
system.mem_ctrls.memoryStateTime::ACT_PDN            0                       # Time in different power states
system.mem_ctrls.actEnergy::0              3347515080                       # Energy for activate commands per rank (pJ)
system.mem_ctrls.actEnergy::1              5193039600                       # Energy for activate commands per rank (pJ)
system.mem_ctrls.preEnergy::0              1826521125                       # Energy for precharge commands per rank (pJ)
system.mem_ctrls.preEnergy::1              2833503750                       # Energy for precharge commands per rank (pJ)
system.mem_ctrls.readEnergy::0            15469482600                       # Energy for read commands per rank (pJ)
system.mem_ctrls.readEnergy::1            18209513400                       # Energy for read commands per rank (pJ)
system.mem_ctrls.writeEnergy::0            1635824160                       # Energy for write commands per rank (pJ)
system.mem_ctrls.writeEnergy::1            1747403280                       # Energy for write commands per rank (pJ)
system.mem_ctrls.refreshEnergy::0        173163662880                       # Energy for refresh commands per rank (pJ)
system.mem_ctrls.refreshEnergy::1        173163662880                       # Energy for refresh commands per rank (pJ)
system.mem_ctrls.actBackEnergy::0        282465277830                       # Energy for active background per rank (pJ)
system.mem_ctrls.actBackEnergy::1        293193850320                       # Energy for active background per rank (pJ)
system.mem_ctrls.preBackEnergy::0        1342945128000                       # Energy for precharge background per rank (pJ)
system.mem_ctrls.preBackEnergy::1        1333534099500                       # Energy for precharge background per rank (pJ)
system.mem_ctrls.totalEnergy::0          1820853411675                       # Total energy per rank (pJ)
system.mem_ctrls.totalEnergy::1          1827875072730                       # Total energy per rank (pJ)
system.mem_ctrls.averagePower::0           686.802761                       # Core power per rank (mW)
system.mem_ctrls.averagePower::1           689.451242                       # Core power per rank (mW)
system.membus.trans_dist::ReadReq             4043605                       # Transaction distribution
system.membus.trans_dist::ReadResp            4043306                       # Transaction distribution
system.membus.trans_dist::WriteReq              10580                       # Transaction distribution
system.membus.trans_dist::WriteResp             10580                       # Transaction distribution
system.membus.trans_dist::Writeback            484088                       # Transaction distribution
system.membus.trans_dist::WriteInvalidateReq        44256                       # Transaction distribution
system.membus.trans_dist::WriteInvalidateResp        44256                       # Transaction distribution
system.membus.trans_dist::UpgradeReq              706                       # Transaction distribution
system.membus.trans_dist::SCUpgradeReq             20                       # Transaction distribution
system.membus.trans_dist::UpgradeResp             726                       # Transaction distribution
system.membus.trans_dist::ReadExReq            319458                       # Transaction distribution
system.membus.trans_dist::ReadExResp           319458                       # Transaction distribution
system.membus.trans_dist::BadAddressError          299                       # Transaction distribution
system.membus.pkt_count_system.iocache.mem_side::system.mem_ctrls.port        88796                       # Packet count per connected master and slave (bytes)
system.membus.pkt_count_system.iocache.mem_side::total        88796                       # Packet count per connected master and slave (bytes)
system.membus.pkt_count_system.cpu.icache.mem_side::system.mem_ctrls.port      2918029                       # Packet count per connected master and slave (bytes)
system.membus.pkt_count_system.cpu.icache.mem_side::total      2918029                       # Packet count per connected master and slave (bytes)
system.membus.pkt_count_system.cpu.dcache.mem_side::system.bridge.slave        36106                       # Packet count per connected master and slave (bytes)
system.membus.pkt_count_system.cpu.dcache.mem_side::system.mem_ctrls.port      6276844                       # Packet count per connected master and slave (bytes)
system.membus.pkt_count_system.cpu.dcache.mem_side::system.membus.badaddr_responder.pio          598                       # Packet count per connected master and slave (bytes)
system.membus.pkt_count_system.cpu.dcache.mem_side::total      6313548                       # Packet count per connected master and slave (bytes)
system.membus.pkt_count::total                9320373                       # Packet count per connected master and slave (bytes)
system.membus.pkt_size_system.iocache.mem_side::system.mem_ctrls.port      2837184                       # Cumulative packet size per connected master and slave (bytes)
system.membus.pkt_size_system.iocache.mem_side::total      2837184                       # Cumulative packet size per connected master and slave (bytes)
system.membus.pkt_size_system.cpu.icache.mem_side::system.mem_ctrls.port     93350336                       # Cumulative packet size per connected master and slave (bytes)
system.membus.pkt_size_system.cpu.icache.mem_side::total     93350336                       # Cumulative packet size per connected master and slave (bytes)
system.membus.pkt_size_system.cpu.dcache.mem_side::system.bridge.slave        47951                       # Cumulative packet size per connected master and slave (bytes)
system.membus.pkt_size_system.cpu.dcache.mem_side::system.mem_ctrls.port    216303360                       # Cumulative packet size per connected master and slave (bytes)
system.membus.pkt_size_system.cpu.dcache.mem_side::total    216351311                       # Cumulative packet size per connected master and slave (bytes)
system.membus.pkt_size::total               312538831                       # Cumulative packet size per connected master and slave (bytes)
system.membus.snoops                              965                       # Total snoops (count)
system.membus.snoop_fanout::samples           4884706                       # Request fanout histogram
system.membus.snoop_fanout::mean                    2                       # Request fanout histogram
system.membus.snoop_fanout::stdev                   0                       # Request fanout histogram
system.membus.snoop_fanout::underflows              0      0.00%      0.00% # Request fanout histogram
system.membus.snoop_fanout::0                       0      0.00%      0.00% # Request fanout histogram
system.membus.snoop_fanout::1                       0      0.00%      0.00% # Request fanout histogram
system.membus.snoop_fanout::2                 4884706    100.00%    100.00% # Request fanout histogram
system.membus.snoop_fanout::3                       0      0.00%    100.00% # Request fanout histogram
system.membus.snoop_fanout::overflows               0      0.00%    100.00% # Request fanout histogram
system.membus.snoop_fanout::min_value               2                       # Request fanout histogram
system.membus.snoop_fanout::max_value               2                       # Request fanout histogram
system.membus.snoop_fanout::total             4884706                       # Request fanout histogram
system.membus.reqLayer0.occupancy            28633999                       # Layer occupancy (ticks)
system.membus.reqLayer0.utilization               0.0                       # Layer utilization (%)
system.membus.reqLayer1.occupancy          9111178495                       # Layer occupancy (ticks)
system.membus.reqLayer1.utilization               0.3                       # Layer utilization (%)
system.membus.reqLayer2.occupancy              299000                       # Layer occupancy (ticks)
system.membus.reqLayer2.utilization               0.0                       # Layer utilization (%)
system.membus.respLayer1.occupancy           46291117                       # Layer occupancy (ticks)
system.membus.respLayer1.utilization              0.0                       # Layer utilization (%)
system.membus.respLayer2.occupancy        13634853582                       # Layer occupancy (ticks)
system.membus.respLayer2.utilization              0.5                       # Layer utilization (%)
system.membus.respLayer3.occupancy        26883774016                       # Layer occupancy (ticks)
system.membus.respLayer3.utilization              1.0                       # Layer utilization (%)
system.iocache.tags.replacements                44449                       # number of replacements
system.iocache.tags.tagsinuse                0.437928                       # Cycle average of tags in use
system.iocache.tags.total_refs                      0                       # Total number of references to valid blocks.
system.iocache.tags.sampled_refs                44449                       # Sample count of references to valid blocks.
system.iocache.tags.avg_refs                        0                       # Average number of references to valid blocks.
system.iocache.tags.warmup_cycle         2578643368000                       # Cycle when the warmup percentage was hit.
system.iocache.tags.occ_blocks::tsunami.ide     0.437928                       # Average occupied blocks per requestor
system.iocache.tags.occ_percent::tsunami.ide     0.027370                       # Average percentage of cache occupancy
system.iocache.tags.occ_percent::total       0.027370                       # Average percentage of cache occupancy
system.iocache.tags.occ_task_id_blocks::1023           16                       # Occupied blocks per task id
system.iocache.tags.age_task_id_blocks_1023::4           16                       # Occupied blocks per task id
system.iocache.tags.occ_task_id_percent::1023            1                       # Percentage of cache occupancy per task id
system.iocache.tags.tag_accesses               400313                       # Number of tag accesses
system.iocache.tags.data_accesses              400313                       # Number of data accesses
system.iocache.WriteInvalidateReq_hits::tsunami.ide        44256                       # number of WriteInvalidateReq hits
system.iocache.WriteInvalidateReq_hits::total        44256                       # number of WriteInvalidateReq hits
system.iocache.ReadReq_misses::tsunami.ide          209                       # number of ReadReq misses
system.iocache.ReadReq_misses::total              209                       # number of ReadReq misses
system.iocache.WriteInvalidateReq_misses::tsunami.ide           16                       # number of WriteInvalidateReq misses
system.iocache.WriteInvalidateReq_misses::total           16                       # number of WriteInvalidateReq misses
system.iocache.demand_misses::tsunami.ide          209                       # number of demand (read+write) misses
system.iocache.demand_misses::total               209                       # number of demand (read+write) misses
system.iocache.overall_misses::tsunami.ide          209                       # number of overall misses
system.iocache.overall_misses::total              209                       # number of overall misses
system.iocache.ReadReq_miss_latency::tsunami.ide     32236103                       # number of ReadReq miss cycles
system.iocache.ReadReq_miss_latency::total     32236103                       # number of ReadReq miss cycles
system.iocache.demand_miss_latency::tsunami.ide     32236103                       # number of demand (read+write) miss cycles
system.iocache.demand_miss_latency::total     32236103                       # number of demand (read+write) miss cycles
system.iocache.overall_miss_latency::tsunami.ide     32236103                       # number of overall miss cycles
system.iocache.overall_miss_latency::total     32236103                       # number of overall miss cycles
system.iocache.ReadReq_accesses::tsunami.ide          209                       # number of ReadReq accesses(hits+misses)
system.iocache.ReadReq_accesses::total            209                       # number of ReadReq accesses(hits+misses)
system.iocache.WriteInvalidateReq_accesses::tsunami.ide        44272                       # number of WriteInvalidateReq accesses(hits+misses)
system.iocache.WriteInvalidateReq_accesses::total        44272                       # number of WriteInvalidateReq accesses(hits+misses)
system.iocache.demand_accesses::tsunami.ide          209                       # number of demand (read+write) accesses
system.iocache.demand_accesses::total             209                       # number of demand (read+write) accesses
system.iocache.overall_accesses::tsunami.ide          209                       # number of overall (read+write) accesses
system.iocache.overall_accesses::total            209                       # number of overall (read+write) accesses
system.iocache.ReadReq_miss_rate::tsunami.ide            1                       # miss rate for ReadReq accesses
system.iocache.ReadReq_miss_rate::total             1                       # miss rate for ReadReq accesses
system.iocache.WriteInvalidateReq_miss_rate::tsunami.ide     0.000361                       # miss rate for WriteInvalidateReq accesses
system.iocache.WriteInvalidateReq_miss_rate::total     0.000361                       # miss rate for WriteInvalidateReq accesses
system.iocache.demand_miss_rate::tsunami.ide            1                       # miss rate for demand accesses
system.iocache.demand_miss_rate::total              1                       # miss rate for demand accesses
system.iocache.overall_miss_rate::tsunami.ide            1                       # miss rate for overall accesses
system.iocache.overall_miss_rate::total             1                       # miss rate for overall accesses
system.iocache.ReadReq_avg_miss_latency::tsunami.ide 154239.727273                       # average ReadReq miss latency
system.iocache.ReadReq_avg_miss_latency::total 154239.727273                       # average ReadReq miss latency
system.iocache.demand_avg_miss_latency::tsunami.ide 154239.727273                       # average overall miss latency
system.iocache.demand_avg_miss_latency::total 154239.727273                       # average overall miss latency
system.iocache.overall_avg_miss_latency::tsunami.ide 154239.727273                       # average overall miss latency
system.iocache.overall_avg_miss_latency::total 154239.727273                       # average overall miss latency
system.iocache.blocked_cycles::no_mshrs           440                       # number of cycles access was blocked
system.iocache.blocked_cycles::no_targets            0                       # number of cycles access was blocked
system.iocache.blocked::no_mshrs                   45                       # number of cycles access was blocked
system.iocache.blocked::no_targets                  0                       # number of cycles access was blocked
system.iocache.avg_blocked_cycles::no_mshrs     9.777778                       # average number of cycles each access was blocked
system.iocache.avg_blocked_cycles::no_targets          nan                       # average number of cycles each access was blocked
system.iocache.fast_writes                      44256                       # number of fast writes performed
system.iocache.cache_copies                         0                       # number of cache copies performed
system.iocache.ReadReq_mshr_misses::tsunami.ide          209                       # number of ReadReq MSHR misses
system.iocache.ReadReq_mshr_misses::total          209                       # number of ReadReq MSHR misses
system.iocache.WriteInvalidateReq_mshr_misses::tsunami.ide        44256                       # number of WriteInvalidateReq MSHR misses
system.iocache.WriteInvalidateReq_mshr_misses::total        44256                       # number of WriteInvalidateReq MSHR misses
system.iocache.demand_mshr_misses::tsunami.ide          209                       # number of demand (read+write) MSHR misses
system.iocache.demand_mshr_misses::total          209                       # number of demand (read+write) MSHR misses
system.iocache.overall_mshr_misses::tsunami.ide          209                       # number of overall MSHR misses
system.iocache.overall_mshr_misses::total          209                       # number of overall MSHR misses
system.iocache.ReadReq_mshr_miss_latency::tsunami.ide     21352605                       # number of ReadReq MSHR miss cycles
system.iocache.ReadReq_mshr_miss_latency::total     21352605                       # number of ReadReq MSHR miss cycles
system.iocache.WriteInvalidateReq_mshr_miss_latency::tsunami.ide   2966051347                       # number of WriteInvalidateReq MSHR miss cycles
system.iocache.WriteInvalidateReq_mshr_miss_latency::total   2966051347                       # number of WriteInvalidateReq MSHR miss cycles
system.iocache.demand_mshr_miss_latency::tsunami.ide     21352605                       # number of demand (read+write) MSHR miss cycles
system.iocache.demand_mshr_miss_latency::total     21352605                       # number of demand (read+write) MSHR miss cycles
system.iocache.overall_mshr_miss_latency::tsunami.ide     21352605                       # number of overall MSHR miss cycles
system.iocache.overall_mshr_miss_latency::total     21352605                       # number of overall MSHR miss cycles
system.iocache.ReadReq_mshr_miss_rate::tsunami.ide            1                       # mshr miss rate for ReadReq accesses
system.iocache.ReadReq_mshr_miss_rate::total            1                       # mshr miss rate for ReadReq accesses
system.iocache.WriteInvalidateReq_mshr_miss_rate::tsunami.ide     0.999639                       # mshr miss rate for WriteInvalidateReq accesses
system.iocache.WriteInvalidateReq_mshr_miss_rate::total     0.999639                       # mshr miss rate for WriteInvalidateReq accesses
system.iocache.demand_mshr_miss_rate::tsunami.ide            1                       # mshr miss rate for demand accesses
system.iocache.demand_mshr_miss_rate::total            1                       # mshr miss rate for demand accesses
system.iocache.overall_mshr_miss_rate::tsunami.ide            1                       # mshr miss rate for overall accesses
system.iocache.overall_mshr_miss_rate::total            1                       # mshr miss rate for overall accesses
system.iocache.ReadReq_avg_mshr_miss_latency::tsunami.ide 102165.574163                       # average ReadReq mshr miss latency
system.iocache.ReadReq_avg_mshr_miss_latency::total 102165.574163                       # average ReadReq mshr miss latency
system.iocache.WriteInvalidateReq_avg_mshr_miss_latency::tsunami.ide 67020.321471                       # average WriteInvalidateReq mshr miss latency
system.iocache.WriteInvalidateReq_avg_mshr_miss_latency::total 67020.321471                       # average WriteInvalidateReq mshr miss latency
system.iocache.demand_avg_mshr_miss_latency::tsunami.ide 102165.574163                       # average overall mshr miss latency
system.iocache.demand_avg_mshr_miss_latency::total 102165.574163                       # average overall mshr miss latency
system.iocache.overall_avg_mshr_miss_latency::tsunami.ide 102165.574163                       # average overall mshr miss latency
system.iocache.overall_avg_mshr_miss_latency::total 102165.574163                       # average overall mshr miss latency
system.iocache.no_allocate_misses                   0                       # Number of misses that were no-allocate
system.disk0.dma_read_full_pages                    0                       # Number of full page size DMA reads (not PRD).
system.disk0.dma_read_bytes                      4096                       # Number of bytes transfered via DMA reads (not PRD).
system.disk0.dma_read_txs                           1                       # Number of DMA read transactions (not PRD).
system.disk0.dma_write_full_pages                 326                       # Number of full page size DMA writes.
system.disk0.dma_write_bytes                  2824192                       # Number of bytes transfered via DMA writes.
system.disk0.dma_write_txs                        365                       # Number of DMA write transactions.
system.disk2.dma_read_full_pages                    0                       # Number of full page size DMA reads (not PRD).
system.disk2.dma_read_bytes                         0                       # Number of bytes transfered via DMA reads (not PRD).
system.disk2.dma_read_txs                           0                       # Number of DMA read transactions (not PRD).
system.disk2.dma_write_full_pages                   1                       # Number of full page size DMA writes.
system.disk2.dma_write_bytes                     8192                       # Number of bytes transfered via DMA writes.
system.disk2.dma_write_txs                          1                       # Number of DMA write transactions.
system.cpu.branchPred.lookups                27612928                       # Number of BP lookups
system.cpu.branchPred.condPredicted          23431583                       # Number of conditional branches predicted
system.cpu.branchPred.condIncorrect            614021                       # Number of conditional branches incorrect
system.cpu.branchPred.BTBLookups             18701092                       # Number of BTB lookups
system.cpu.branchPred.BTBHits                10638099                       # Number of BTB hits
system.cpu.branchPred.BTBCorrect                    0                       # Number of correct BTB predictions (this stat may not work properly.
system.cpu.branchPred.BTBHitPct             56.884908                       # BTB Hit Percentage
system.cpu.branchPred.usedRAS                 1708834                       # Number of times the RAS was used to get a target.
system.cpu.branchPred.RASInCorrect              37347                       # Number of incorrect RAS predictions.
system.cpu_voltage_domain.voltage                   1                       # Voltage in Volts
system.cpu_clk_domain.clock                      4000                       # Clock period in ticks
system.cpu.dtb.fetch_hits                           0                       # ITB hits
system.cpu.dtb.fetch_misses                         0                       # ITB misses
system.cpu.dtb.fetch_acv                            0                       # ITB acv
system.cpu.dtb.fetch_accesses                       0                       # ITB accesses
system.cpu.dtb.read_hits                     17337854                       # DTB read hits
system.cpu.dtb.read_misses                      80659                       # DTB read misses
system.cpu.dtb.read_acv                           217                       # DTB read access violations
system.cpu.dtb.read_accesses                  1159361                       # DTB read accesses
system.cpu.dtb.write_hits                     8702730                       # DTB write hits
system.cpu.dtb.write_misses                     14448                       # DTB write misses
system.cpu.dtb.write_acv                          519                       # DTB write access violations
system.cpu.dtb.write_accesses                  414387                       # DTB write accesses
system.cpu.dtb.data_hits                     26040584                       # DTB hits
system.cpu.dtb.data_misses                      95107                       # DTB misses
system.cpu.dtb.data_acv                           736                       # DTB access violations
system.cpu.dtb.data_accesses                  1573748                       # DTB accesses
system.cpu.itb.fetch_hits                     2136824                       # ITB hits
system.cpu.itb.fetch_misses                     28681                       # ITB misses
system.cpu.itb.fetch_acv                          788                       # ITB acv
system.cpu.itb.fetch_accesses                 2165505                       # ITB accesses
system.cpu.itb.read_hits                            0                       # DTB read hits
system.cpu.itb.read_misses                          0                       # DTB read misses
system.cpu.itb.read_acv                             0                       # DTB read access violations
system.cpu.itb.read_accesses                        0                       # DTB read accesses
system.cpu.itb.write_hits                           0                       # DTB write hits
system.cpu.itb.write_misses                         0                       # DTB write misses
system.cpu.itb.write_acv                            0                       # DTB write access violations
system.cpu.itb.write_accesses                       0                       # DTB write accesses
system.cpu.itb.data_hits                            0                       # DTB hits
system.cpu.itb.data_misses                          0                       # DTB misses
system.cpu.itb.data_acv                             0                       # DTB access violations
system.cpu.itb.data_accesses                        0                       # DTB accesses
system.cpu.numCycles                        105086901                       # number of cpu cycles simulated
system.cpu.numWorkItemsStarted                      0                       # number of work items this cpu started
system.cpu.numWorkItemsCompleted                    0                       # number of work items this cpu completed
system.cpu.fetch.icacheStallCycles           35212041                       # Number of cycles fetch is stalled on an Icache miss
system.cpu.fetch.Insts                      121852117                       # Number of instructions fetch has processed
system.cpu.fetch.Branches                    27612928                       # Number of branches that fetch encountered
system.cpu.fetch.predictedBranches           12346933                       # Number of branches that fetch has predicted taken
system.cpu.fetch.Cycles                      66223221                       # Number of cycles fetch has run and was not squashing or blocked
system.cpu.fetch.SquashCycles                 1814202                       # Number of cycles fetch has spent squashing
system.cpu.fetch.TlbCycles                       1973                       # Number of cycles fetch has spent waiting for tlb
system.cpu.fetch.MiscStallCycles                47821                       # Number of cycles fetch has spent waiting on interrupts, or bad addresses, or out of MSHRs
system.cpu.fetch.PendingTrapStallCycles        872022                       # Number of stall cycles due to pending traps
system.cpu.fetch.PendingQuiesceStallCycles       356692                       # Number of stall cycles due to pending quiesce instructions
system.cpu.fetch.IcacheWaitRetryStallCycles           27                       # Number of stall cycles due to full MSHR
system.cpu.fetch.CacheLines                  15692691                       # Number of cache lines fetched
system.cpu.fetch.IcacheSquashes                421236                       # Number of outstanding Icache misses that were squashed
system.cpu.fetch.ItlbSquashes                      13                       # Number of outstanding ITLB misses that were squashed
system.cpu.fetch.rateDist::samples          103620898                       # Number of instructions fetched each cycle (Total)
system.cpu.fetch.rateDist::mean              1.175942                       # Number of instructions fetched each cycle (Total)
system.cpu.fetch.rateDist::stdev             2.425994                       # Number of instructions fetched each cycle (Total)
system.cpu.fetch.rateDist::underflows               0      0.00%      0.00% # Number of instructions fetched each cycle (Total)
system.cpu.fetch.rateDist::0                 78437566     75.70%     75.70% # Number of instructions fetched each cycle (Total)
system.cpu.fetch.rateDist::1                  2674888      2.58%     78.28% # Number of instructions fetched each cycle (Total)
system.cpu.fetch.rateDist::2                  3453553      3.33%     81.61% # Number of instructions fetched each cycle (Total)
system.cpu.fetch.rateDist::3                  2474847      2.39%     84.00% # Number of instructions fetched each cycle (Total)
system.cpu.fetch.rateDist::4                  4985233      4.81%     88.81% # Number of instructions fetched each cycle (Total)
system.cpu.fetch.rateDist::5                  1098150      1.06%     89.87% # Number of instructions fetched each cycle (Total)
system.cpu.fetch.rateDist::6                  1885192      1.82%     91.69% # Number of instructions fetched each cycle (Total)
system.cpu.fetch.rateDist::7                   789004      0.76%     92.45% # Number of instructions fetched each cycle (Total)
system.cpu.fetch.rateDist::8                  7822465      7.55%    100.00% # Number of instructions fetched each cycle (Total)
system.cpu.fetch.rateDist::overflows                0      0.00%    100.00% # Number of instructions fetched each cycle (Total)
system.cpu.fetch.rateDist::min_value                0                       # Number of instructions fetched each cycle (Total)
system.cpu.fetch.rateDist::max_value                8                       # Number of instructions fetched each cycle (Total)
system.cpu.fetch.rateDist::total            103620898                       # Number of instructions fetched each cycle (Total)
system.cpu.fetch.branchRate                  0.262763                       # Number of branch fetches per cycle
system.cpu.fetch.rate                        1.159537                       # Number of inst fetches per cycle
system.cpu.decode.IdleCycles                 28717365                       # Number of cycles decode is idle
system.cpu.decode.BlockedCycles              53985699                       # Number of cycles decode is blocked
system.cpu.decode.RunCycles                  16880560                       # Number of cycles decode is running
system.cpu.decode.UnblockCycles               3208545                       # Number of cycles decode is unblocking
system.cpu.decode.SquashCycles                 828728                       # Number of cycles decode is squashing
system.cpu.decode.BranchResolved               929332                       # Number of times decode resolved a branch
system.cpu.decode.BranchMispred                 79165                       # Number of times decode detected a branch misprediction
system.cpu.decode.DecodedInsts              109203897                       # Number of instructions handled by decode
system.cpu.decode.SquashedInsts                231254                       # Number of squashed instructions handled by decode
system.cpu.rename.SquashCycles                 828728                       # Number of cycles rename is squashing
system.cpu.rename.IdleCycles                 30140184                       # Number of cycles rename is idle
system.cpu.rename.BlockCycles                22024117                       # Number of cycles rename is blocking
system.cpu.rename.serializeStallCycles       22820533                       # count of cycles rename stalled for serializing inst
system.cpu.rename.RunCycles                  18585900                       # Number of cycles rename is running
system.cpu.rename.UnblockCycles               9221434                       # Number of cycles rename is unblocking
system.cpu.rename.RenamedInsts              105912701                       # Number of instructions processed by rename
system.cpu.rename.ROBFullEvents                253585                       # Number of times rename has blocked due to ROB full
system.cpu.rename.IQFullEvents                6025791                       # Number of times rename has blocked due to IQ full
system.cpu.rename.LQFullEvents                 517079                       # Number of times rename has blocked due to LQ full
system.cpu.rename.SQFullEvents                 433715                       # Number of times rename has blocked due to SQ full
system.cpu.rename.RenamedOperands            76231395                       # Number of destination operands rename has renamed
system.cpu.rename.RenameLookups             136070315                       # Number of register rename lookups that rename has made
system.cpu.rename.int_rename_lookups        135871599                       # Number of integer rename lookups
system.cpu.rename.fp_rename_lookups            184392                       # Number of floating rename lookups
system.cpu.rename.CommittedMaps              67158132                       # Number of HB maps that are committed
system.cpu.rename.UndoneMaps                  9073255                       # Number of HB maps that are undone due to squashing
system.cpu.rename.serializingInsts            1989984                       # count of serializing insts renamed
system.cpu.rename.tempSerializingInsts         325536                       # count of temporary serializing insts renamed
system.cpu.rename.skidInsts                  20190379                       # count of insts added to the skid buffer
system.cpu.memDep0.insertedLoads             18136443                       # Number of loads inserted to the mem dependence unit.
system.cpu.memDep0.insertedStores             9155935                       # Number of stores inserted to the mem dependence unit.
system.cpu.memDep0.conflictingLoads           2555834                       # Number of conflicting loads.
system.cpu.memDep0.conflictingStores          1740017                       # Number of conflicting stores.
system.cpu.iq.iqInstsAdded                   99247824                       # Number of instructions added to the IQ (excludes non-spec)
system.cpu.iq.iqNonSpecInstsAdded             2706980                       # Number of non-speculative instructions added to the IQ
system.cpu.iq.iqInstsIssued                  96821009                       # Number of instructions issued
system.cpu.iq.iqSquashedInstsIssued             86429                       # Number of squashed instructions issued
system.cpu.iq.iqSquashedInstsExamined        11217975                       # Number of squashed instructions iterated over during squash; mainly for profiling
system.cpu.iq.iqSquashedOperandsExamined      5665157                       # Number of squashed operands that are examined and possibly removed from graph
system.cpu.iq.iqSquashedNonSpecRemoved        1720717                       # Number of squashed non-spec instructions that were removed
system.cpu.iq.issued_per_cycle::samples     103620898                       # Number of insts issued each cycle
system.cpu.iq.issued_per_cycle::mean         0.934377                       # Number of insts issued each cycle
system.cpu.iq.issued_per_cycle::stdev        1.560002                       # Number of insts issued each cycle
system.cpu.iq.issued_per_cycle::underflows            0      0.00%      0.00% # Number of insts issued each cycle
system.cpu.iq.issued_per_cycle::0            62973800     60.77%     60.77% # Number of insts issued each cycle
system.cpu.iq.issued_per_cycle::1            18021974     17.39%     78.17% # Number of insts issued each cycle
system.cpu.iq.issued_per_cycle::2             7619292      7.35%     85.52% # Number of insts issued each cycle
system.cpu.iq.issued_per_cycle::3             5352627      5.17%     90.68% # Number of insts issued each cycle
system.cpu.iq.issued_per_cycle::4             4732780      4.57%     95.25% # Number of insts issued each cycle
system.cpu.iq.issued_per_cycle::5             2381150      2.30%     97.55% # Number of insts issued each cycle
system.cpu.iq.issued_per_cycle::6             1463857      1.41%     98.96% # Number of insts issued each cycle
system.cpu.iq.issued_per_cycle::7              720786      0.70%     99.66% # Number of insts issued each cycle
system.cpu.iq.issued_per_cycle::8              354632      0.34%    100.00% # Number of insts issued each cycle
system.cpu.iq.issued_per_cycle::overflows            0      0.00%    100.00% # Number of insts issued each cycle
system.cpu.iq.issued_per_cycle::min_value            0                       # Number of insts issued each cycle
system.cpu.iq.issued_per_cycle::max_value            8                       # Number of insts issued each cycle
system.cpu.iq.issued_per_cycle::total       103620898                       # Number of insts issued each cycle
system.cpu.iq.fu_full::No_OpClass                   0      0.00%      0.00% # attempts to use FU when none available
system.cpu.iq.fu_full::IntAlu                  501080     28.10%     28.10% # attempts to use FU when none available
system.cpu.iq.fu_full::IntMult                      1      0.00%     28.10% # attempts to use FU when none available
system.cpu.iq.fu_full::IntDiv                       0      0.00%     28.10% # attempts to use FU when none available
system.cpu.iq.fu_full::FloatAdd                     0      0.00%     28.10% # attempts to use FU when none available
system.cpu.iq.fu_full::FloatCmp                     0      0.00%     28.10% # attempts to use FU when none available
system.cpu.iq.fu_full::FloatCvt                     0      0.00%     28.10% # attempts to use FU when none available
system.cpu.iq.fu_full::FloatMult                    0      0.00%     28.10% # attempts to use FU when none available
system.cpu.iq.fu_full::FloatDiv                     0      0.00%     28.10% # attempts to use FU when none available
system.cpu.iq.fu_full::FloatSqrt                    0      0.00%     28.10% # attempts to use FU when none available
system.cpu.iq.fu_full::SimdAdd                      0      0.00%     28.10% # attempts to use FU when none available
system.cpu.iq.fu_full::SimdAddAcc                   0      0.00%     28.10% # attempts to use FU when none available
system.cpu.iq.fu_full::SimdAlu                      0      0.00%     28.10% # attempts to use FU when none available
system.cpu.iq.fu_full::SimdCmp                      0      0.00%     28.10% # attempts to use FU when none available
system.cpu.iq.fu_full::SimdCvt                      0      0.00%     28.10% # attempts to use FU when none available
system.cpu.iq.fu_full::SimdMisc                     0      0.00%     28.10% # attempts to use FU when none available
system.cpu.iq.fu_full::SimdMult                     0      0.00%     28.10% # attempts to use FU when none available
system.cpu.iq.fu_full::SimdMultAcc                  0      0.00%     28.10% # attempts to use FU when none available
system.cpu.iq.fu_full::SimdShift                    0      0.00%     28.10% # attempts to use FU when none available
system.cpu.iq.fu_full::SimdShiftAcc                 0      0.00%     28.10% # attempts to use FU when none available
system.cpu.iq.fu_full::SimdSqrt                     0      0.00%     28.10% # attempts to use FU when none available
system.cpu.iq.fu_full::SimdFloatAdd                 0      0.00%     28.10% # attempts to use FU when none available
system.cpu.iq.fu_full::SimdFloatAlu                 0      0.00%     28.10% # attempts to use FU when none available
system.cpu.iq.fu_full::SimdFloatCmp                 0      0.00%     28.10% # attempts to use FU when none available
system.cpu.iq.fu_full::SimdFloatCvt                 0      0.00%     28.10% # attempts to use FU when none available
system.cpu.iq.fu_full::SimdFloatDiv                 0      0.00%     28.10% # attempts to use FU when none available
system.cpu.iq.fu_full::SimdFloatMisc                0      0.00%     28.10% # attempts to use FU when none available
system.cpu.iq.fu_full::SimdFloatMult                0      0.00%     28.10% # attempts to use FU when none available
system.cpu.iq.fu_full::SimdFloatMultAcc             0      0.00%     28.10% # attempts to use FU when none available
system.cpu.iq.fu_full::SimdFloatSqrt                0      0.00%     28.10% # attempts to use FU when none available
system.cpu.iq.fu_full::MemRead                 772327     43.31%     71.41% # attempts to use FU when none available
system.cpu.iq.fu_full::MemWrite                509930     28.59%    100.00% # attempts to use FU when none available
system.cpu.iq.fu_full::IprAccess                    0      0.00%    100.00% # attempts to use FU when none available
system.cpu.iq.fu_full::InstPrefetch                 0      0.00%    100.00% # attempts to use FU when none available
system.cpu.iq.FU_type_0::No_OpClass              8371      0.01%      0.01% # Type of FU issued
system.cpu.iq.FU_type_0::IntAlu              68556953     70.81%     70.82% # Type of FU issued
system.cpu.iq.FU_type_0::IntMult               160886      0.17%     70.98% # Type of FU issued
system.cpu.iq.FU_type_0::IntDiv                     0      0.00%     70.98% # Type of FU issued
system.cpu.iq.FU_type_0::FloatAdd               85820      0.09%     71.07% # Type of FU issued
system.cpu.iq.FU_type_0::FloatCmp                   0      0.00%     71.07% # Type of FU issued
system.cpu.iq.FU_type_0::FloatCvt                   0      0.00%     71.07% # Type of FU issued
system.cpu.iq.FU_type_0::FloatMult                  0      0.00%     71.07% # Type of FU issued
system.cpu.iq.FU_type_0::FloatDiv                4183      0.00%     71.08% # Type of FU issued
system.cpu.iq.FU_type_0::FloatSqrt                  0      0.00%     71.08% # Type of FU issued
system.cpu.iq.FU_type_0::SimdAdd                    0      0.00%     71.08% # Type of FU issued
system.cpu.iq.FU_type_0::SimdAddAcc                 0      0.00%     71.08% # Type of FU issued
system.cpu.iq.FU_type_0::SimdAlu                    0      0.00%     71.08% # Type of FU issued
system.cpu.iq.FU_type_0::SimdCmp                    0      0.00%     71.08% # Type of FU issued
system.cpu.iq.FU_type_0::SimdCvt                    0      0.00%     71.08% # Type of FU issued
system.cpu.iq.FU_type_0::SimdMisc                   0      0.00%     71.08% # Type of FU issued
system.cpu.iq.FU_type_0::SimdMult                   0      0.00%     71.08% # Type of FU issued
system.cpu.iq.FU_type_0::SimdMultAcc                0      0.00%     71.08% # Type of FU issued
system.cpu.iq.FU_type_0::SimdShift                  0      0.00%     71.08% # Type of FU issued
system.cpu.iq.FU_type_0::SimdShiftAcc               0      0.00%     71.08% # Type of FU issued
system.cpu.iq.FU_type_0::SimdSqrt                   0      0.00%     71.08% # Type of FU issued
system.cpu.iq.FU_type_0::SimdFloatAdd               0      0.00%     71.08% # Type of FU issued
system.cpu.iq.FU_type_0::SimdFloatAlu               0      0.00%     71.08% # Type of FU issued
system.cpu.iq.FU_type_0::SimdFloatCmp               0      0.00%     71.08% # Type of FU issued
system.cpu.iq.FU_type_0::SimdFloatCvt               0      0.00%     71.08% # Type of FU issued
system.cpu.iq.FU_type_0::SimdFloatDiv               0      0.00%     71.08% # Type of FU issued
system.cpu.iq.FU_type_0::SimdFloatMisc              0      0.00%     71.08% # Type of FU issued
system.cpu.iq.FU_type_0::SimdFloatMult              0      0.00%     71.08% # Type of FU issued
system.cpu.iq.FU_type_0::SimdFloatMultAcc            0      0.00%     71.08% # Type of FU issued
system.cpu.iq.FU_type_0::SimdFloatSqrt              0      0.00%     71.08% # Type of FU issued
system.cpu.iq.FU_type_0::MemRead             18023432     18.62%     89.69% # Type of FU issued
system.cpu.iq.FU_type_0::MemWrite             8893529      9.19%     98.88% # Type of FU issued
system.cpu.iq.FU_type_0::IprAccess            1087835      1.12%    100.00% # Type of FU issued
system.cpu.iq.FU_type_0::InstPrefetch               0      0.00%    100.00% # Type of FU issued
system.cpu.iq.FU_type_0::total               96821009                       # Type of FU issued
system.cpu.iq.rate                           0.921342                       # Inst issue rate
system.cpu.iq.fu_busy_cnt                     1783338                       # FU busy when requested
system.cpu.iq.fu_busy_rate                   0.018419                       # FU busy rate (busy events/executed inst)
system.cpu.iq.int_inst_queue_reads          298262658                       # Number of integer instruction queue reads
system.cpu.iq.int_inst_queue_writes         112794801                       # Number of integer instruction queue writes
system.cpu.iq.int_inst_queue_wakeup_accesses     94934613                       # Number of integer instruction queue wakeup accesses
system.cpu.iq.fp_inst_queue_reads              870024                       # Number of floating instruction queue reads
system.cpu.iq.fp_inst_queue_writes             414641                       # Number of floating instruction queue writes
system.cpu.iq.fp_inst_queue_wakeup_accesses       404676                       # Number of floating instruction queue wakeup accesses
system.cpu.iq.int_alu_accesses               98132681                       # Number of integer alu accesses
system.cpu.iq.fp_alu_accesses                  463295                       # Number of floating point alu accesses
system.cpu.iew.lsq.thread0.forwLoads           838706                       # Number of loads that had data forwarded from stores
system.cpu.iew.lsq.thread0.invAddrLoads             0                       # Number of loads ignored due to an invalid address
system.cpu.iew.lsq.thread0.squashedLoads      2189274                       # Number of loads squashed
system.cpu.iew.lsq.thread0.ignoredResponses         3413                       # Number of memory responses ignored because the instruction is squashed
system.cpu.iew.lsq.thread0.memOrderViolation        37200                       # Number of memory ordering violations
system.cpu.iew.lsq.thread0.squashedStores       895457                       # Number of stores squashed
system.cpu.iew.lsq.thread0.invAddrSwpfs             0                       # Number of software prefetches ignored due to an invalid address
system.cpu.iew.lsq.thread0.blockedLoads             0                       # Number of blocked loads due to partial load-store forwarding
system.cpu.iew.lsq.thread0.rescheduledLoads        20218                       # Number of loads that were rescheduled
system.cpu.iew.lsq.thread0.cacheBlocked        101054                       # Number of times an access to memory failed due to the cache being blocked
[...]
system.cpu.dcache.overall_misses::cpu.data        93215                       # number of overall misses
system.cpu.dcache.overall_misses::total         93215                       # number of overall misses
system.cpu.dcache.ReadReq_miss_latency::cpu.data   1743767749                       # number of ReadReq miss cycles
system.cpu.dcache.ReadReq_miss_latency::total   1743767749                       # number of ReadReq miss cycles
system.cpu.dcache.WriteReq_miss_latency::cpu.data   5113431767                       # number of WriteReq miss cycles
system.cpu.dcache.WriteReq_miss_latency::total   5113431767                       # number of WriteReq miss cycles
system.cpu.dcache.LoadLockedReq_miss_latency::cpu.data     29604750                       # number of LoadLockedReq miss cycles
system.cpu.dcache.LoadLockedReq_miss_latency::total     29604750                       # number of LoadLockedReq miss cycles
system.cpu.dcache.demand_miss_latency::cpu.data   6857199516                       # number of demand (read+write) miss cycles
system.cpu.dcache.demand_miss_latency::total   6857199516                       # number of demand (read+write) miss cycles
system.cpu.dcache.overall_miss_latency::cpu.data   6857199516                       # number of overall miss cycles
system.cpu.dcache.overall_miss_latency::total   6857199516                       # number of overall miss cycles
system.cpu.dcache.ReadReq_accesses::cpu.data       157029                       # number of ReadReq accesses(hits+misses)
system.cpu.dcache.ReadReq_accesses::total       157029                       # number of ReadReq accesses(hits+misses)
system.cpu.dcache.WriteReq_accesses::cpu.data       130816                       # number of WriteReq accesses(hits+misses)
system.cpu.dcache.WriteReq_accesses::total       130816                       # number of WriteReq accesses(hits+misses)
system.cpu.dcache.LoadLockedReq_accesses::cpu.data         2727                       # number of LoadLockedReq accesses(hits+misses)
system.cpu.dcache.LoadLockedReq_accesses::total         2727                       # number of LoadLockedReq accesses(hits+misses)
system.cpu.dcache.StoreCondReq_accesses::cpu.data         2473                       # number of StoreCondReq accesses(hits+misses)
system.cpu.dcache.StoreCondReq_accesses::total         2473                       # number of StoreCondReq accesses(hits+misses)
system.cpu.dcache.demand_accesses::cpu.data       287845                       # number of demand (read+write) accesses
system.cpu.dcache.demand_accesses::total       287845                       # number of demand (read+write) accesses
system.cpu.dcache.overall_accesses::cpu.data       287845                       # number of overall (read+write) accesses
system.cpu.dcache.overall_accesses::total       287845                       # number of overall (read+write) accesses
system.cpu.dcache.ReadReq_miss_rate::cpu.data     0.157238                       # miss rate for ReadReq accesses
system.cpu.dcache.ReadReq_miss_rate::total     0.157238                       # miss rate for ReadReq accesses
system.cpu.dcache.WriteReq_miss_rate::cpu.data     0.523820                       # miss rate for WriteReq accesses
system.cpu.dcache.WriteReq_miss_rate::total     0.523820                       # miss rate for WriteReq accesses
system.cpu.dcache.LoadLockedReq_miss_rate::cpu.data     0.138614                       # miss rate for LoadLockedReq accesses
system.cpu.dcache.LoadLockedReq_miss_rate::total     0.138614                       # miss rate for LoadLockedReq accesses
system.cpu.dcache.demand_miss_rate::cpu.data     0.323837                       # miss rate for demand accesses
system.cpu.dcache.demand_miss_rate::total     0.323837                       # miss rate for demand accesses
system.cpu.dcache.overall_miss_rate::cpu.data     0.323837                       # miss rate for overall accesses
system.cpu.dcache.overall_miss_rate::total     0.323837                       # miss rate for overall accesses
system.cpu.dcache.ReadReq_avg_miss_latency::cpu.data 70623.617877                       # average ReadReq miss latency
system.cpu.dcache.ReadReq_avg_miss_latency::total 70623.617877                       # average ReadReq miss latency
system.cpu.dcache.WriteReq_avg_miss_latency::cpu.data 74622.493827                       # average WriteReq miss latency
system.cpu.dcache.WriteReq_avg_miss_latency::total 74622.493827                       # average WriteReq miss latency
system.cpu.dcache.LoadLockedReq_avg_miss_latency::cpu.data 78319.444444                       # average LoadLockedReq miss latency
system.cpu.dcache.LoadLockedReq_avg_miss_latency::total 78319.444444                       # average LoadLockedReq miss latency
system.cpu.dcache.demand_avg_miss_latency::cpu.data 73563.262522                       # average overall miss latency
system.cpu.dcache.demand_avg_miss_latency::total 73563.262522                       # average overall miss latency
system.cpu.dcache.overall_avg_miss_latency::cpu.data 73563.262522                       # average overall miss latency
system.cpu.dcache.overall_avg_miss_latency::total 73563.262522                       # average overall miss latency
system.cpu.dcache.blocked_cycles::no_mshrs        18337                       # number of cycles access was blocked
system.cpu.dcache.blocked_cycles::no_targets            0                       # number of cycles access was blocked
system.cpu.dcache.blocked::no_mshrs              2453                       # number of cycles access was blocked
system.cpu.dcache.blocked::no_targets               0                       # number of cycles access was blocked
system.cpu.dcache.avg_blocked_cycles::no_mshrs     7.475336                       # average number of cycles each access was blocked
system.cpu.dcache.avg_blocked_cycles::no_targets          nan                       # average number of cycles each access was blocked
system.cpu.dcache.fast_writes                       0                       # number of fast writes performed
system.cpu.dcache.cache_copies                      0                       # number of cache copies performed
system.cpu.dcache.writebacks::writebacks        10438                       # number of writebacks
system.cpu.dcache.writebacks::total             10438                       # number of writebacks
system.cpu.dcache.ReadReq_mshr_hits::cpu.data        16662                       # number of ReadReq MSHR hits
system.cpu.dcache.ReadReq_mshr_hits::total        16662                       # number of ReadReq MSHR hits
system.cpu.dcache.WriteReq_mshr_hits::cpu.data        59498                       # number of WriteReq MSHR hits
system.cpu.dcache.WriteReq_mshr_hits::total        59498                       # number of WriteReq MSHR hits
system.cpu.dcache.LoadLockedReq_mshr_hits::cpu.data          178                       # number of LoadLockedReq MSHR hits
system.cpu.dcache.LoadLockedReq_mshr_hits::total          178                       # number of LoadLockedReq MSHR hits
system.cpu.dcache.demand_mshr_hits::cpu.data        76160                       # number of demand (read+write) MSHR hits
system.cpu.dcache.demand_mshr_hits::total        76160                       # number of demand (read+write) MSHR hits
system.cpu.dcache.overall_mshr_hits::cpu.data        76160                       # number of overall MSHR hits
system.cpu.dcache.overall_mshr_hits::total        76160                       # number of overall MSHR hits
system.cpu.dcache.ReadReq_mshr_misses::cpu.data         8029                       # number of ReadReq MSHR misses
system.cpu.dcache.ReadReq_mshr_misses::total         8029                       # number of ReadReq MSHR misses
system.cpu.dcache.WriteReq_mshr_misses::cpu.data         9026                       # number of WriteReq MSHR misses
system.cpu.dcache.WriteReq_mshr_misses::total         9026                       # number of WriteReq MSHR misses
system.cpu.dcache.LoadLockedReq_mshr_misses::cpu.data          200                       # number of LoadLockedReq MSHR misses
system.cpu.dcache.LoadLockedReq_mshr_misses::total          200                       # number of LoadLockedReq MSHR misses
system.cpu.dcache.demand_mshr_misses::cpu.data        17055                       # number of demand (read+write) MSHR misses
system.cpu.dcache.demand_mshr_misses::total        17055                       # number of demand (read+write) MSHR misses
system.cpu.dcache.overall_mshr_misses::cpu.data        17055                       # number of overall MSHR misses
system.cpu.dcache.overall_mshr_misses::total        17055                       # number of overall MSHR misses
system.cpu.dcache.ReadReq_mshr_miss_latency::cpu.data    516905001                       # number of ReadReq MSHR miss cycles
system.cpu.dcache.ReadReq_mshr_miss_latency::total    516905001                       # number of ReadReq MSHR miss cycles
system.cpu.dcache.WriteReq_mshr_miss_latency::cpu.data    609968932                       # number of WriteReq MSHR miss cycles
system.cpu.dcache.WriteReq_mshr_miss_latency::total    609968932                       # number of WriteReq MSHR miss cycles
system.cpu.dcache.LoadLockedReq_mshr_miss_latency::cpu.data     13924500                       # number of LoadLockedReq MSHR miss cycles
system.cpu.dcache.LoadLockedReq_mshr_miss_latency::total     13924500                       # number of LoadLockedReq MSHR miss cycles
system.cpu.dcache.demand_mshr_miss_latency::cpu.data   1126873933                       # number of demand (read+write) MSHR miss cycles
system.cpu.dcache.demand_mshr_miss_latency::total   1126873933                       # number of demand (read+write) MSHR miss cycles
system.cpu.dcache.overall_mshr_miss_latency::cpu.data   1126873933                       # number of overall MSHR miss cycles
system.cpu.dcache.overall_mshr_miss_latency::total   1126873933                       # number of overall MSHR miss cycles
system.cpu.dcache.WriteReq_mshr_uncacheable_latency::cpu.data       832000                       # number of WriteReq MSHR uncacheable cycles
system.cpu.dcache.WriteReq_mshr_uncacheable_latency::total       832000                       # number of WriteReq MSHR uncacheable cycles
system.cpu.dcache.overall_mshr_uncacheable_latency::cpu.data       832000                       # number of overall MSHR uncacheable cycles
system.cpu.dcache.overall_mshr_uncacheable_latency::total       832000                       # number of overall MSHR uncacheable cycles
system.cpu.dcache.ReadReq_mshr_miss_rate::cpu.data     0.051131                       # mshr miss rate for ReadReq accesses
system.cpu.dcache.ReadReq_mshr_miss_rate::total     0.051131                       # mshr miss rate for ReadReq accesses
system.cpu.dcache.WriteReq_mshr_miss_rate::cpu.data     0.068998                       # mshr miss rate for WriteReq accesses
system.cpu.dcache.WriteReq_mshr_miss_rate::total     0.068998                       # mshr miss rate for WriteReq accesses
system.cpu.dcache.LoadLockedReq_mshr_miss_rate::cpu.data     0.073341                       # mshr miss rate for LoadLockedReq accesses
system.cpu.dcache.LoadLockedReq_mshr_miss_rate::total     0.073341                       # mshr miss rate for LoadLockedReq accesses
system.cpu.dcache.demand_mshr_miss_rate::cpu.data     0.059251                       # mshr miss rate for demand accesses
system.cpu.dcache.demand_mshr_miss_rate::total     0.059251                       # mshr miss rate for demand accesses
system.cpu.dcache.overall_mshr_miss_rate::cpu.data     0.059251                       # mshr miss rate for overall accesses
system.cpu.dcache.overall_mshr_miss_rate::total     0.059251                       # mshr miss rate for overall accesses
system.cpu.dcache.ReadReq_avg_mshr_miss_latency::cpu.data 64379.748537                       # average ReadReq mshr miss latency
system.cpu.dcache.ReadReq_avg_mshr_miss_latency::total 64379.748537                       # average ReadReq mshr miss latency
system.cpu.dcache.WriteReq_avg_mshr_miss_latency::cpu.data 67579.097275                       # average WriteReq mshr miss latency
system.cpu.dcache.WriteReq_avg_mshr_miss_latency::total 67579.097275                       # average WriteReq mshr miss latency
system.cpu.dcache.LoadLockedReq_avg_mshr_miss_latency::cpu.data 69622.500000                       # average LoadLockedReq mshr miss latency
system.cpu.dcache.LoadLockedReq_avg_mshr_miss_latency::total 69622.500000                       # average LoadLockedReq mshr miss latency
system.cpu.dcache.demand_avg_mshr_miss_latency::cpu.data 66072.936558                       # average overall mshr miss latency
system.cpu.dcache.demand_avg_mshr_miss_latency::total 66072.936558                       # average overall mshr miss latency
system.cpu.dcache.overall_avg_mshr_miss_latency::cpu.data 66072.936558                       # average overall mshr miss latency
system.cpu.dcache.overall_avg_mshr_miss_latency::total 66072.936558                       # average overall mshr miss latency
system.cpu.dcache.WriteReq_avg_mshr_uncacheable_latency::cpu.data          inf                       # average WriteReq mshr uncacheable latency
system.cpu.dcache.WriteReq_avg_mshr_uncacheable_latency::total          inf                       # average WriteReq mshr uncacheable latency
system.cpu.dcache.overall_avg_mshr_uncacheable_latency::cpu.data          inf                       # average overall mshr uncacheable latency
system.cpu.dcache.overall_avg_mshr_uncacheable_latency::total          inf                       # average overall mshr uncacheable latency
system.cpu.dcache.no_allocate_misses                0                       # Number of misses that were no-allocate
system.cpu.kern.inst.arm                            0                       # number of arm instructions executed
system.cpu.kern.inst.quiesce                        0                       # number of quiesce instructions executed
system.cpu.kern.inst.hwrei                       2715                       # number of hwrei instructions executed
system.cpu.kern.ipl_count::0                      556     47.24%     47.24% # number of times we switched to this ipl
system.cpu.kern.ipl_count::22                       4      0.34%     47.58% # number of times we switched to this ipl
system.cpu.kern.ipl_count::31                     617     52.42%    100.00% # number of times we switched to this ipl
system.cpu.kern.ipl_count::total                 1177                       # number of times we switched to this ipl
system.cpu.kern.ipl_good::0                       554     49.82%     49.82% # number of times we switched to this ipl from a different ipl
system.cpu.kern.ipl_good::22                        4      0.36%     50.18% # number of times we switched to this ipl from a different ipl
system.cpu.kern.ipl_good::31                      554     49.82%    100.00% # number of times we switched to this ipl from a different ipl
system.cpu.kern.ipl_good::total                  1112                       # number of times we switched to this ipl from a different ipl
system.cpu.kern.ipl_ticks::0               3065356000     88.81%     88.81% # number of cycles we spent at this ipl
system.cpu.kern.ipl_ticks::22                 4804000      0.14%     88.95% # number of cycles we spent at this ipl
system.cpu.kern.ipl_ticks::31               381580000     11.05%    100.00% # number of cycles we spent at this ipl
system.cpu.kern.ipl_ticks::total           3451740000                       # number of cycles we spent at this ipl
system.cpu.kern.ipl_used::0                  0.996403                       # fraction of swpipl calls that actually changed the ipl
system.cpu.kern.ipl_used::22                        1                       # fraction of swpipl calls that actually changed the ipl
system.cpu.kern.ipl_used::31                 0.897893                       # fraction of swpipl calls that actually changed the ipl
system.cpu.kern.ipl_used::total              0.944775                       # fraction of swpipl calls that actually changed the ipl
system.cpu.kern.syscall::2                          1      5.88%      5.88% # number of syscalls executed
system.cpu.kern.syscall::3                          2     11.76%     17.65% # number of syscalls executed
system.cpu.kern.syscall::6                          2     11.76%     29.41% # number of syscalls executed
system.cpu.kern.syscall::17                         1      5.88%     35.29% # number of syscalls executed
system.cpu.kern.syscall::33                         1      5.88%     41.18% # number of syscalls executed
system.cpu.kern.syscall::45                         3     17.65%     58.82% # number of syscalls executed
system.cpu.kern.syscall::48                         1      5.88%     64.71% # number of syscalls executed
system.cpu.kern.syscall::59                         1      5.88%     70.59% # number of syscalls executed
system.cpu.kern.syscall::71                         4     23.53%     94.12% # number of syscalls executed
system.cpu.kern.syscall::74                         1      5.88%    100.00% # number of syscalls executed
system.cpu.kern.syscall::total                     17                       # number of syscalls executed
system.cpu.kern.callpal::swpctx                   121      8.97%      8.97% # number of callpals executed
system.cpu.kern.callpal::tbi                        6      0.44%      9.41% # number of callpals executed
system.cpu.kern.callpal::swpipl                   982     72.79%     82.21% # number of callpals executed
system.cpu.kern.callpal::rdps                       9      0.67%     82.88% # number of callpals executed
system.cpu.kern.callpal::wrusp                      1      0.07%     82.95% # number of callpals executed
system.cpu.kern.callpal::rdusp                      1      0.07%     83.02% # number of callpals executed
system.cpu.kern.callpal::rti                      191     14.16%     97.18% # number of callpals executed
system.cpu.kern.callpal::callsys                   34      2.52%     99.70% # number of callpals executed
system.cpu.kern.callpal::imb                        4      0.30%    100.00% # number of callpals executed
system.cpu.kern.callpal::total                   1349                       # number of callpals executed
system.cpu.kern.mode_switch::kernel               312                       # number of protection mode switches
system.cpu.kern.mode_switch::user                 187                       # number of protection mode switches
system.cpu.kern.mode_switch::idle                   0                       # number of protection mode switches
system.cpu.kern.mode_good::kernel                 187                      
system.cpu.kern.mode_good::user                   187                      
system.cpu.kern.mode_good::idle                     0                      
system.cpu.kern.mode_switch_good::kernel     0.599359                       # fraction of useful protection mode switches
system.cpu.kern.mode_switch_good::user              1                       # fraction of useful protection mode switches
system.cpu.kern.mode_switch_good::idle            nan                       # fraction of useful protection mode switches
system.cpu.kern.mode_switch_good::total      0.749499                       # fraction of useful protection mode switches
system.cpu.kern.mode_ticks::kernel         2203288000     63.83%     63.83% # number of ticks spent at the given mode
system.cpu.kern.mode_ticks::user           1248452000     36.17%    100.00% # number of ticks spent at the given mode
system.cpu.kern.mode_ticks::idle                    0      0.00%    100.00% # number of ticks spent at the given mode
system.cpu.kern.swap_context                      121                       # number of times the context was actually changed

---------- End Simulation Statistics   ----------
