
---------- Begin Simulation Statistics ----------
sim_seconds                                  2.526689                       # Number of seconds simulated
sim_ticks                                2526689118000                       # Number of ticks simulated
final_tick                               2526689118000                       # Number of ticks from beginning of simulation (restored from checkpoints and never reset)
sim_freq                                 1000000000000                       # Frequency of simulated ticks
host_inst_rate                                 210231                       # Simulator instruction rate (inst/s)
host_op_rate                                   210231                       # Simulator op (including micro ops) rate (op/s)
host_tick_rate                             6001350092                       # Simulator tick rate (ticks/s)
host_mem_usage                                 458476                       # Number of bytes of host memory used
host_seconds                                   421.02                       # Real time elapsed on the host
sim_insts                                    88511420                       # Number of instructions simulated
sim_ops                                      88511420                       # Number of ops (including micro ops) simulated
system.voltage_domain.voltage                       1                       # Voltage in Volts
system.clk_domain.clock                          1000                       # Clock period in ticks
system.mem_ctrls.bytes_read::cpu.inst        91298624                       # Number of bytes read from this memory
system.mem_ctrls.bytes_read::cpu.data       183373568                       # Number of bytes read from this memory
system.mem_ctrls.bytes_read::tsunami.ide         4032                       # Number of bytes read from this memory
system.mem_ctrls.bytes_read::total          274676224                       # Number of bytes read from this memory
system.mem_ctrls.bytes_inst_read::cpu.inst     91298624                       # Number of instructions bytes read from this memory
system.mem_ctrls.bytes_inst_read::total      91298624                       # Number of instructions bytes read from this memory
system.mem_ctrls.bytes_written::writebacks     30798144                       # Number of bytes written to this memory
system.mem_ctrls.bytes_written::tsunami.ide      2832384                       # Number of bytes written to this memory
system.mem_ctrls.bytes_written::total        33630528                       # Number of bytes written to this memory
system.mem_ctrls.num_reads::cpu.inst          1426541                       # Number of read requests responded to by this memory
system.mem_ctrls.num_reads::cpu.data          2865212                       # Number of read requests responded to by this memory
system.mem_ctrls.num_reads::tsunami.ide            63                       # Number of read requests responded to by this memory
system.mem_ctrls.num_reads::total             4291816                       # Number of read requests responded to by this memory
system.mem_ctrls.num_writes::writebacks        481221                       # Number of write requests responded to by this memory
system.mem_ctrls.num_writes::tsunami.ide        44256                       # Number of write requests responded to by this memory
system.mem_ctrls.num_writes::total             525477                       # Number of write requests responded to by this memory
system.mem_ctrls.bw_read::cpu.inst           36133699                       # Total read bandwidth from this memory (bytes/s)
system.mem_ctrls.bw_read::cpu.data           72574646                       # Total read bandwidth from this memory (bytes/s)
system.mem_ctrls.bw_read::tsunami.ide            1596                       # Total read bandwidth from this memory (bytes/s)
system.mem_ctrls.bw_read::total             108709941                       # Total read bandwidth from this memory (bytes/s)
system.mem_ctrls.bw_inst_read::cpu.inst      36133699                       # Instruction read bandwidth from this memory (bytes/s)
system.mem_ctrls.bw_inst_read::total         36133699                       # Instruction read bandwidth from this memory (bytes/s)
system.mem_ctrls.bw_write::writebacks        12189131                       # Write bandwidth from this memory (bytes/s)
system.mem_ctrls.bw_write::tsunami.ide        1120986                       # Write bandwidth from this memory (bytes/s)
system.mem_ctrls.bw_write::total             13310117                       # Write bandwidth from this memory (bytes/s)
system.mem_ctrls.bw_total::writebacks        12189131                       # Total bandwidth to/from this memory (bytes/s)
system.mem_ctrls.bw_total::cpu.inst          36133699                       # Total bandwidth to/from this memory (bytes/s)
system.mem_ctrls.bw_total::cpu.data          72574646                       # Total bandwidth to/from this memory (bytes/s)
system.mem_ctrls.bw_total::tsunami.ide        1122582                       # Total bandwidth to/from this memory (bytes/s)
system.mem_ctrls.bw_total::total            122020058                       # Total bandwidth to/from this memory (bytes/s)
system.mem_ctrls.readReqs                     4291816                       # Number of read requests accepted
system.mem_ctrls.writeReqs                     525477                       # Number of write requests accepted
system.mem_ctrls.readBursts                   4291816                       # Number of DRAM read bursts, including those serviced by the write queue
system.mem_ctrls.writeBursts                   525477                       # Number of DRAM write bursts, including those merged in the write queue
system.mem_ctrls.bytesReadDRAM              272411136                       # Total number of bytes read from DRAM
system.mem_ctrls.bytesReadWrQ                 2265088                       # Total number of bytes read from write queue
system.mem_ctrls.bytesWritten                33303168                       # Total number of bytes written to DRAM
system.mem_ctrls.bytesReadSys               274676224                       # Total read bytes from the system interface side
system.mem_ctrls.bytesWrittenSys             33630528                       # Total written bytes from the system interface side
system.mem_ctrls.servicedByWrQ                  35392                       # Number of DRAM read bursts serviced by the write queue
system.mem_ctrls.mergedWrBursts                  5098                       # Number of DRAM write bursts merged with an existing one
system.mem_ctrls.neitherReadNorWriteReqs          876                       # Number of requests that are neither read nor write
system.mem_ctrls.perBankRdBursts::0            322682                       # Per bank write bursts
system.mem_ctrls.perBankRdBursts::1            278045                       # Per bank write bursts
system.mem_ctrls.perBankRdBursts::2            268202                       # Per bank write bursts
system.mem_ctrls.perBankRdBursts::3            156217                       # Per bank write bursts
system.mem_ctrls.perBankRdBursts::4            227026                       # Per bank write bursts
system.mem_ctrls.perBankRdBursts::5            222080                       # Per bank write bursts
system.mem_ctrls.perBankRdBursts::6            224775                       # Per bank write bursts
system.mem_ctrls.perBankRdBursts::7            210464                       # Per bank write bursts
system.mem_ctrls.perBankRdBursts::8            262387                       # Per bank write bursts
system.mem_ctrls.perBankRdBursts::9            306001                       # Per bank write bursts
system.mem_ctrls.perBankRdBursts::10           272027                       # Per bank write bursts
system.mem_ctrls.perBankRdBursts::11           429697                       # Per bank write bursts
system.mem_ctrls.perBankRdBursts::12           228526                       # Per bank write bursts
system.mem_ctrls.perBankRdBursts::13           308488                       # Per bank write bursts
system.mem_ctrls.perBankRdBursts::14           319446                       # Per bank write bursts
system.mem_ctrls.perBankRdBursts::15           220361                       # Per bank write bursts
system.mem_ctrls.perBankWrBursts::0             21969                       # Per bank write bursts
system.mem_ctrls.perBankWrBursts::1             62849                       # Per bank write bursts
system.mem_ctrls.perBankWrBursts::2             41972                       # Per bank write bursts
system.mem_ctrls.perBankWrBursts::3             21898                       # Per bank write bursts
system.mem_ctrls.perBankWrBursts::4             18934                       # Per bank write bursts
system.mem_ctrls.perBankWrBursts::5             17907                       # Per bank write bursts
system.mem_ctrls.perBankWrBursts::6             22866                       # Per bank write bursts
system.mem_ctrls.perBankWrBursts::7             38482                       # Per bank write bursts
system.mem_ctrls.perBankWrBursts::8             26221                       # Per bank write bursts
system.mem_ctrls.perBankWrBursts::9             26908                       # Per bank write bursts
system.mem_ctrls.perBankWrBursts::10            30230                       # Per bank write bursts
system.mem_ctrls.perBankWrBursts::11            60510                       # Per bank write bursts
system.mem_ctrls.perBankWrBursts::12            30989                       # Per bank write bursts
system.mem_ctrls.perBankWrBursts::13            46393                       # Per bank write bursts
system.mem_ctrls.perBankWrBursts::14            23450                       # Per bank write bursts
system.mem_ctrls.perBankWrBursts::15            28784                       # Per bank write bursts
system.mem_ctrls.numRdRetry                         0                       # Number of times read queue was full causing retry
system.mem_ctrls.numWrRetry                        35                       # Number of times write queue was full causing retry
system.mem_ctrls.totGap                  2526689038000                       # Total gap between requests
system.mem_ctrls.readPktSize::0                     0                       # Read request sizes (log2)
system.mem_ctrls.readPktSize::1                     0                       # Read request sizes (log2)
system.mem_ctrls.readPktSize::2                     0                       # Read request sizes (log2)
system.mem_ctrls.readPktSize::3                     0                       # Read request sizes (log2)
system.mem_ctrls.readPktSize::4                     0                       # Read request sizes (log2)
system.mem_ctrls.readPktSize::5                     0                       # Read request sizes (log2)
system.mem_ctrls.readPktSize::6               4291816                       # Read request sizes (log2)
system.mem_ctrls.writePktSize::0                    0                       # Write request sizes (log2)
system.mem_ctrls.writePktSize::1                    0                       # Write request sizes (log2)
system.mem_ctrls.writePktSize::2                    0                       # Write request sizes (log2)
system.mem_ctrls.writePktSize::3                    0                       # Write request sizes (log2)
system.mem_ctrls.writePktSize::4                    0                       # Write request sizes (log2)
system.mem_ctrls.writePktSize::5                    0                       # Write request sizes (log2)
system.mem_ctrls.writePktSize::6               525477                       # Write request sizes (log2)
system.mem_ctrls.rdQLenPdf::0                 3156324                       # What read queue length does an incoming req see
system.mem_ctrls.rdQLenPdf::1                  923855                       # What read queue length does an incoming req see
system.mem_ctrls.rdQLenPdf::2                  147807                       # What read queue length does an incoming req see
system.mem_ctrls.rdQLenPdf::3                   26643                       # What read queue length does an incoming req see
system.mem_ctrls.rdQLenPdf::4                    1650                       # What read queue length does an incoming req see
system.mem_ctrls.rdQLenPdf::5                     108                       # What read queue length does an incoming req see
system.mem_ctrls.rdQLenPdf::6                      11                       # What read queue length does an incoming req see
system.mem_ctrls.rdQLenPdf::7                       8                       # What read queue length does an incoming req see
system.mem_ctrls.rdQLenPdf::8                       3                       # What read queue length does an incoming req see
system.mem_ctrls.rdQLenPdf::9                       1                       # What read queue length does an incoming req see
system.mem_ctrls.rdQLenPdf::10                      1                       # What read queue length does an incoming req see
system.mem_ctrls.rdQLenPdf::11                      1                       # What read queue length does an incoming req see
system.mem_ctrls.rdQLenPdf::12                      1                       # What read queue length does an incoming req see
system.mem_ctrls.rdQLenPdf::13                      1                       # What read queue length does an incoming req see
system.mem_ctrls.rdQLenPdf::14                      1                       # What read queue length does an incoming req see
system.mem_ctrls.rdQLenPdf::15                      2                       # What read queue length does an incoming req see
system.mem_ctrls.rdQLenPdf::16                      4                       # What read queue length does an incoming req see
system.mem_ctrls.rdQLenPdf::17                      1                       # What read queue length does an incoming req see
system.mem_ctrls.rdQLenPdf::18                      1                       # What read queue length does an incoming req see
system.mem_ctrls.rdQLenPdf::19                      1                       # What read queue length does an incoming req see
system.mem_ctrls.rdQLenPdf::20                      0                       # What read queue length does an incoming req see
system.mem_ctrls.rdQLenPdf::21                      0                       # What read queue length does an incoming req see
system.mem_ctrls.rdQLenPdf::22                      0                       # What read queue length does an incoming req see
system.mem_ctrls.rdQLenPdf::23                      0                       # What read queue length does an incoming req see
system.mem_ctrls.rdQLenPdf::24                      0                       # What read queue length does an incoming req see
system.mem_ctrls.rdQLenPdf::25                      0                       # What read queue length does an incoming req see
system.mem_ctrls.rdQLenPdf::26                      0                       # What read queue length does an incoming req see
system.mem_ctrls.rdQLenPdf::27                      0                       # What read queue length does an incoming req see
system.mem_ctrls.rdQLenPdf::28                      0                       # What read queue length does an incoming req see
system.mem_ctrls.rdQLenPdf::29                      0                       # What read queue length does an incoming req see
system.mem_ctrls.rdQLenPdf::30                      0                       # What read queue length does an incoming req see
system.mem_ctrls.rdQLenPdf::31                      0                       # What read queue length does an incoming req see
system.mem_ctrls.wrQLenPdf::0                       1                       # What write queue length does an incoming req see
system.mem_ctrls.wrQLenPdf::1                       1                       # What write queue length does an incoming req see
system.mem_ctrls.wrQLenPdf::2                       1                       # What write queue length does an incoming req see
system.mem_ctrls.wrQLenPdf::3                       1                       # What write queue length does an incoming req see
system.mem_ctrls.wrQLenPdf::4                       1                       # What write queue length does an incoming req see
system.mem_ctrls.wrQLenPdf::5                       1                       # What write queue length does an incoming req see
system.mem_ctrls.wrQLenPdf::6                       1                       # What write queue length does an incoming req see
system.mem_ctrls.wrQLenPdf::7                       1                       # What write queue length does an incoming req see
system.mem_ctrls.wrQLenPdf::8                       1                       # What write queue length does an incoming req see
system.mem_ctrls.wrQLenPdf::9                       1                       # What write queue length does an incoming req see
system.mem_ctrls.wrQLenPdf::10                      1                       # What write queue length does an incoming req see
system.mem_ctrls.wrQLenPdf::11                      1                       # What write queue length does an incoming req see
system.mem_ctrls.wrQLenPdf::12                      1                       # What write queue length does an incoming req see
system.mem_ctrls.wrQLenPdf::13                      1                       # What write queue length does an incoming req see
system.mem_ctrls.wrQLenPdf::14                      1                       # What write queue length does an incoming req see
system.mem_ctrls.wrQLenPdf::15                   4832                       # What write queue length does an incoming req see
system.mem_ctrls.wrQLenPdf::16                   5144                       # What write queue length does an incoming req see
system.mem_ctrls.wrQLenPdf::17                  20023                       # What write queue length does an incoming req see
system.mem_ctrls.wrQLenPdf::18                  23582                       # What write queue length does an incoming req see
system.mem_ctrls.wrQLenPdf::19                  27356                       # What write queue length does an incoming req see
system.mem_ctrls.wrQLenPdf::20                  29935                       # What write queue length does an incoming req see
system.mem_ctrls.wrQLenPdf::21                  31383                       # What write queue length does an incoming req see
system.mem_ctrls.wrQLenPdf::22                  32122                       # What write queue length does an incoming req see
system.mem_ctrls.wrQLenPdf::23                  33227                       # What write queue length does an incoming req see
system.mem_ctrls.wrQLenPdf::24                  34095                       # What write queue length does an incoming req see
system.mem_ctrls.wrQLenPdf::25                  34621                       # What write queue length does an incoming req see
system.mem_ctrls.wrQLenPdf::26                  34435                       # What write queue length does an incoming req see
system.mem_ctrls.wrQLenPdf::27                  34252                       # What write queue length does an incoming req see
system.mem_ctrls.wrQLenPdf::28                  34072                       # What write queue length does an incoming req see
system.mem_ctrls.wrQLenPdf::29                  32773                       # What write queue length does an incoming req see
system.mem_ctrls.wrQLenPdf::30                  32930                       # What write queue length does an incoming req see
system.mem_ctrls.wrQLenPdf::31                  32787                       # What write queue length does an incoming req see
system.mem_ctrls.wrQLenPdf::32                  32200                       # What write queue length does an incoming req see
system.mem_ctrls.wrQLenPdf::33                   1312                       # What write queue length does an incoming req see
system.mem_ctrls.wrQLenPdf::34                   1008                       # What write queue length does an incoming req see
system.mem_ctrls.wrQLenPdf::35                    869                       # What write queue length does an incoming req see
system.mem_ctrls.wrQLenPdf::36                    706                       # What write queue length does an incoming req see
system.mem_ctrls.wrQLenPdf::37                    577                       # What write queue length does an incoming req see
system.mem_ctrls.wrQLenPdf::38                    512                       # What write queue length does an incoming req see
system.mem_ctrls.wrQLenPdf::39                    432                       # What write queue length does an incoming req see
system.mem_ctrls.wrQLenPdf::40                    373                       # What write queue length does an incoming req see
system.mem_ctrls.wrQLenPdf::41                    325                       # What write queue length does an incoming req see
system.mem_ctrls.wrQLenPdf::42                    298                       # What write queue length does an incoming req see
system.mem_ctrls.wrQLenPdf::43                    286                       # What write queue length does an incoming req see
system.mem_ctrls.wrQLenPdf::44                    261                       # What write queue length does an incoming req see
system.mem_ctrls.wrQLenPdf::45                    252                       # What write queue length does an incoming req see
system.mem_ctrls.wrQLenPdf::46                    238                       # What write queue length does an incoming req see
system.mem_ctrls.wrQLenPdf::47                    233                       # What write queue length does an incoming req see
system.mem_ctrls.wrQLenPdf::48                    218                       # What write queue length does an incoming req see
system.mem_ctrls.wrQLenPdf::49                    223                       # What write queue length does an incoming req see
system.mem_ctrls.wrQLenPdf::50                    216                       # What write queue length does an incoming req see
system.mem_ctrls.wrQLenPdf::51                    189                       # What write queue length does an incoming req see
system.mem_ctrls.wrQLenPdf::52                    179                       # What write queue length does an incoming req see
system.mem_ctrls.wrQLenPdf::53                    178                       # What write queue length does an incoming req see
system.mem_ctrls.wrQLenPdf::54                    170                       # What write queue length does an incoming req see
system.mem_ctrls.wrQLenPdf::55                    162                       # What write queue length does an incoming req see
system.mem_ctrls.wrQLenPdf::56                    220                       # What write queue length does an incoming req see
system.mem_ctrls.wrQLenPdf::57                    206                       # What write queue length does an incoming req see
system.mem_ctrls.wrQLenPdf::58                    206                       # What write queue length does an incoming req see
system.mem_ctrls.wrQLenPdf::59                    194                       # What write queue length does an incoming req see
system.mem_ctrls.wrQLenPdf::60                    188                       # What write queue length does an incoming req see
system.mem_ctrls.wrQLenPdf::61                    171                       # What write queue length does an incoming req see
system.mem_ctrls.wrQLenPdf::62                     97                       # What write queue length does an incoming req see
system.mem_ctrls.wrQLenPdf::63                     96                       # What write queue length does an incoming req see
system.mem_ctrls.bytesPerActivate::samples      1045198                       # Bytes accessed per row activation
system.mem_ctrls.bytesPerActivate::mean    292.492316                       # Bytes accessed per row activation
system.mem_ctrls.bytesPerActivate::gmean   170.677969                       # Bytes accessed per row activation
system.mem_ctrls.bytesPerActivate::stdev   324.851877                       # Bytes accessed per row activation
system.mem_ctrls.bytesPerActivate::0-127       408889     39.12%     39.12% # Bytes accessed per row activation
system.mem_ctrls.bytesPerActivate::128-255       276666     26.47%     65.59% # Bytes accessed per row activation
system.mem_ctrls.bytesPerActivate::256-383        87702      8.39%     73.98% # Bytes accessed per row activation
system.mem_ctrls.bytesPerActivate::384-511        51788      4.95%     78.94% # Bytes accessed per row activation
system.mem_ctrls.bytesPerActivate::512-639        40433      3.87%     82.81% # Bytes accessed per row activation
system.mem_ctrls.bytesPerActivate::640-767        22452      2.15%     84.95% # Bytes accessed per row activation
system.mem_ctrls.bytesPerActivate::768-895        19725      1.89%     86.84% # Bytes accessed per row activation
system.mem_ctrls.bytesPerActivate::896-1023        15340      1.47%     88.31% # Bytes accessed per row activation
system.mem_ctrls.bytesPerActivate::1024-1151       122203     11.69%    100.00% # Bytes accessed per row activation
system.mem_ctrls.bytesPerActivate::total      1045198                       # Bytes accessed per row activation
system.mem_ctrls.rdPerTurnAround::samples        31367                       # Reads before turning the bus around for writes
system.mem_ctrls.rdPerTurnAround::mean     135.697389                       # Reads before turning the bus around for writes
system.mem_ctrls.rdPerTurnAround::stdev   5829.155774                       # Reads before turning the bus around for writes
system.mem_ctrls.rdPerTurnAround::0-32767        31366    100.00%    100.00% # Reads before turning the bus around for writes
system.mem_ctrls.rdPerTurnAround::1.01581e+06-1.04858e+06            1      0.00%    100.00% # Reads before turning the bus around for writes
system.mem_ctrls.rdPerTurnAround::total         31367                       # Reads before turning the bus around for writes
system.mem_ctrls.wrPerTurnAround::samples        31367                       # Writes before turning the bus around for reads
system.mem_ctrls.wrPerTurnAround::mean      16.589473                       # Writes before turning the bus around for reads
system.mem_ctrls.wrPerTurnAround::gmean     16.437267                       # Writes before turning the bus around for reads
system.mem_ctrls.wrPerTurnAround::stdev      4.125775                       # Writes before turning the bus around for reads
system.mem_ctrls.wrPerTurnAround::16-19         31051     98.99%     98.99% # Writes before turning the bus around for reads
system.mem_ctrls.wrPerTurnAround::20-23           124      0.40%     99.39% # Writes before turning the bus around for reads
system.mem_ctrls.wrPerTurnAround::24-27            21      0.07%     99.45% # Writes before turning the bus around for reads
system.mem_ctrls.wrPerTurnAround::28-31            69      0.22%     99.67% # Writes before turning the bus around for reads
system.mem_ctrls.wrPerTurnAround::32-35            17      0.05%     99.73% # Writes before turning the bus around for reads
system.mem_ctrls.wrPerTurnAround::36-39             3      0.01%     99.74% # Writes before turning the bus around for reads
system.mem_ctrls.wrPerTurnAround::40-43             7      0.02%     99.76% # Writes before turning the bus around for reads
system.mem_ctrls.wrPerTurnAround::44-47             1      0.00%     99.76% # Writes before turning the bus around for reads
system.mem_ctrls.wrPerTurnAround::48-51             4      0.01%     99.78% # Writes before turning the bus around for reads
system.mem_ctrls.wrPerTurnAround::56-59             2      0.01%     99.78% # Writes before turning the bus around for reads
system.mem_ctrls.wrPerTurnAround::60-63             1      0.00%     99.79% # Writes before turning the bus around for reads
system.mem_ctrls.wrPerTurnAround::64-67             1      0.00%     99.79% # Writes before turning the bus around for reads
system.mem_ctrls.wrPerTurnAround::68-71             1      0.00%     99.79% # Writes before turning the bus around for reads
system.mem_ctrls.wrPerTurnAround::72-75             4      0.01%     99.81% # Writes before turning the bus around for reads
system.mem_ctrls.wrPerTurnAround::76-79             1      0.00%     99.81% # Writes before turning the bus around for reads
system.mem_ctrls.wrPerTurnAround::80-83             4      0.01%     99.82% # Writes before turning the bus around for reads
system.mem_ctrls.wrPerTurnAround::84-87             4      0.01%     99.83% # Writes before turning the bus around for reads
system.mem_ctrls.wrPerTurnAround::88-91             1      0.00%     99.84% # Writes before turning the bus around for reads
system.mem_ctrls.wrPerTurnAround::92-95             3      0.01%     99.85% # Writes before turning the bus around for reads
system.mem_ctrls.wrPerTurnAround::96-99            38      0.12%     99.97% # Writes before turning the bus around for reads
system.mem_ctrls.wrPerTurnAround::100-103            1      0.00%     99.97% # Writes before turning the bus around for reads
system.mem_ctrls.wrPerTurnAround::112-115            2      0.01%     99.98% # Writes before turning the bus around for reads
system.mem_ctrls.wrPerTurnAround::132-135            1      0.00%     99.98% # Writes before turning the bus around for reads
system.mem_ctrls.wrPerTurnAround::136-139            1      0.00%     99.98% # Writes before turning the bus around for reads
system.mem_ctrls.wrPerTurnAround::140-143            1      0.00%     99.99% # Writes before turning the bus around for reads
system.mem_ctrls.wrPerTurnAround::148-151            1      0.00%     99.99% # Writes before turning the bus around for reads
system.mem_ctrls.wrPerTurnAround::152-155            1      0.00%     99.99% # Writes before turning the bus around for reads
system.mem_ctrls.wrPerTurnAround::156-159            1      0.00%    100.00% # Writes before turning the bus around for reads
system.mem_ctrls.wrPerTurnAround::160-163            1      0.00%    100.00% # Writes before turning the bus around for reads
system.mem_ctrls.wrPerTurnAround::total         31367                       # Writes before turning the bus around for reads
system.mem_ctrls.totQLat                  38700017499                       # Total ticks spent queuing
system.mem_ctrls.totMemAccLat            118507967499                       # Total ticks spent from burst creation until serviced by the DRAM
system.mem_ctrls.totBusLat                21282120000                       # Total ticks spent in databus transfers
system.mem_ctrls.avgQLat                      9092.14                       # Average queueing delay per DRAM burst
system.mem_ctrls.avgBusLat                    5000.00                       # Average bus latency per DRAM burst
system.mem_ctrls.avgMemAccLat                27842.14                       # Average memory access latency per DRAM burst
system.mem_ctrls.avgRdBW                       107.81                       # Average DRAM read bandwidth in MiByte/s
system.mem_ctrls.avgWrBW                        13.18                       # Average achieved write bandwidth in MiByte/s
system.mem_ctrls.avgRdBWSys                    108.71                       # Average system read bandwidth in MiByte/s
system.mem_ctrls.avgWrBWSys                     13.31                       # Average system write bandwidth in MiByte/s
system.mem_ctrls.peakBW                      12800.00                       # Theoretical peak bandwidth in MiByte/s
system.mem_ctrls.busUtil                         0.95                       # Data bus utilization in percentage
system.mem_ctrls.busUtilRead                     0.84                       # Data bus utilization in percentage for reads
system.mem_ctrls.busUtilWrite                    0.10                       # Data bus utilization in percentage for writes
system.mem_ctrls.avgRdQLen                       1.03                       # Average read queue length when enqueuing
system.mem_ctrls.avgWrQLen                      26.12                       # Average write queue length when enqueuing
system.mem_ctrls.readRowHits                  3377763                       # Number of row buffer hits during reads
system.mem_ctrls.writeRowHits                  353812                       # Number of row buffer hits during writes
system.mem_ctrls.readRowHitRate                 79.36                       # Row buffer hit rate for reads
system.mem_ctrls.writeRowHitRate                67.99                       # Row buffer hit rate for writes
system.mem_ctrls.avgGap                     524503.91                       # Average gap between requests
system.mem_ctrls.pageHitRate                    78.12                       # Row buffer hit rate, read and write combined
system.mem_ctrls.memoryStateTime::IDLE   2164848474750                       # Time in different power states
system.mem_ctrls.memoryStateTime::REF     84371560000                       # Time in different power states
system.mem_ctrls.memoryStateTime::PRE_PDN            0                       # Time in different power states
system.mem_ctrls.memoryStateTime::ACT    277465081500                       # Time in different power states
system.mem_ctrls.memoryStateTime::ACT_PDN            0                       # Time in different power states
system.mem_ctrls.actEnergy::0              3166944480                       # Energy for activate commands per rank (pJ)
system.mem_ctrls.actEnergy::1              4734699480                       # Energy for activate commands per rank (pJ)
system.mem_ctrls.preEnergy::0              1727995500                       # Energy for precharge commands per rank (pJ)
system.mem_ctrls.preEnergy::1              2583417375                       # Energy for precharge commands per rank (pJ)
system.mem_ctrls.readEnergy::0            14893951800                       # Energy for read commands per rank (pJ)
system.mem_ctrls.readEnergy::1            18305820000                       # Energy for read commands per rank (pJ)
system.mem_ctrls.writeEnergy::0            1599685200                       # Energy for write commands per rank (pJ)
system.mem_ctrls.writeEnergy::1            1772156880                       # Energy for write commands per rank (pJ)
system.mem_ctrls.refreshEnergy::0        165030771360                       # Energy for refresh commands per rank (pJ)
system.mem_ctrls.refreshEnergy::1        165030771360                       # Energy for refresh commands per rank (pJ)
system.mem_ctrls.actBackEnergy::0        211690096380                       # Energy for active background per rank (pJ)
system.mem_ctrls.actBackEnergy::1        218340176940                       # Energy for active background per rank (pJ)
system.mem_ctrls.preBackEnergy::0        1330317994500                       # Energy for precharge background per rank (pJ)
system.mem_ctrls.preBackEnergy::1        1324484590500                       # Energy for precharge background per rank (pJ)
system.mem_ctrls.totalEnergy::0          1728427439220                       # Total energy per rank (pJ)
system.mem_ctrls.totalEnergy::1          1735251632535                       # Total energy per rank (pJ)
system.mem_ctrls.averagePower::0           684.069193                       # Core power per rank (mW)
system.mem_ctrls.averagePower::1           686.770041                       # Core power per rank (mW)
system.membus.trans_dist::ReadReq             3983362                       # Transaction distribution
system.membus.trans_dist::ReadResp            3983048                       # Transaction distribution
system.membus.trans_dist::WriteReq              10481                       # Transaction distribution
system.membus.trans_dist::WriteResp             10481                       # Transaction distribution
system.membus.trans_dist::Writeback            481221                       # Transaction distribution
system.membus.trans_dist::WriteInvalidateReq        44256                       # Transaction distribution
system.membus.trans_dist::WriteInvalidateResp        44256                       # Transaction distribution
system.membus.trans_dist::UpgradeReq              863                       # Transaction distribution
system.membus.trans_dist::SCUpgradeReq             13                       # Transaction distribution
system.membus.trans_dist::UpgradeResp             876                       # Transaction distribution
system.membus.trans_dist::ReadExReq            317461                       # Transaction distribution
system.membus.trans_dist::ReadExResp           317461                       # Transaction distribution
system.membus.trans_dist::BadAddressError          314                       # Transaction distribution
system.membus.pkt_count_system.iocache.mem_side::system.mem_ctrls.port        88785                       # Packet count per connected master and slave (bytes)
system.membus.pkt_count_system.iocache.mem_side::total        88785                       # Packet count per connected master and slave (bytes)
system.membus.pkt_count_system.cpu.icache.mem_side::system.mem_ctrls.port      2854154                       # Packet count per connected master and slave (bytes)
system.membus.pkt_count_system.cpu.icache.mem_side::total      2854154                       # Packet count per connected master and slave (bytes)
system.membus.pkt_count_system.cpu.dcache.mem_side::system.bridge.slave        35910                       # Packet count per connected master and slave (bytes)
system.membus.pkt_count_system.cpu.dcache.mem_side::system.mem_ctrls.port      6213397                       # Packet count per connected master and slave (bytes)
system.membus.pkt_count_system.cpu.dcache.mem_side::system.membus.badaddr_responder.pio          628                       # Packet count per connected master and slave (bytes)
system.membus.pkt_count_system.cpu.dcache.mem_side::total      6249935                       # Packet count per connected master and slave (bytes)
system.membus.pkt_count::total                9192874                       # Packet count per connected master and slave (bytes)
system.membus.pkt_size_system.iocache.mem_side::system.mem_ctrls.port      2836416                       # Cumulative packet size per connected master and slave (bytes)
system.membus.pkt_size_system.iocache.mem_side::total      2836416                       # Cumulative packet size per connected master and slave (bytes)
system.membus.pkt_size_system.cpu.icache.mem_side::system.mem_ctrls.port     91298624                       # Cumulative packet size per connected master and slave (bytes)
system.membus.pkt_size_system.cpu.icache.mem_side::total     91298624                       # Cumulative packet size per connected master and slave (bytes)
system.membus.pkt_size_system.cpu.dcache.mem_side::system.bridge.slave        47153                       # Cumulative packet size per connected master and slave (bytes)
system.membus.pkt_size_system.cpu.dcache.mem_side::system.mem_ctrls.port    214171712                       # Cumulative packet size per connected master and slave (bytes)
system.membus.pkt_size_system.cpu.dcache.mem_side::total    214218865                       # Cumulative packet size per connected master and slave (bytes)
system.membus.pkt_size::total               308353905                       # Cumulative packet size per connected master and slave (bytes)
system.membus.snoops                             1219                       # Total snoops (count)
system.membus.snoop_fanout::samples           4819737                       # Request fanout histogram
system.membus.snoop_fanout::mean                    2                       # Request fanout histogram
system.membus.snoop_fanout::stdev                   0                       # Request fanout histogram
system.membus.snoop_fanout::underflows              0      0.00%      0.00% # Request fanout histogram
system.membus.snoop_fanout::0                       0      0.00%      0.00% # Request fanout histogram
system.membus.snoop_fanout::1                       0      0.00%      0.00% # Request fanout histogram
system.membus.snoop_fanout::2                 4819737    100.00%    100.00% # Request fanout histogram
system.membus.snoop_fanout::3                       0      0.00%    100.00% # Request fanout histogram
system.membus.snoop_fanout::overflows               0      0.00%    100.00% # Request fanout histogram
system.membus.snoop_fanout::min_value               2                       # Request fanout histogram
system.membus.snoop_fanout::max_value               2                       # Request fanout histogram
system.membus.snoop_fanout::total             4819737                       # Request fanout histogram
system.membus.reqLayer0.occupancy            28436999                       # Layer occupancy (ticks)
system.membus.reqLayer0.utilization               0.0                       # Layer utilization (%)
system.membus.reqLayer1.occupancy          9023255998                       # Layer occupancy (ticks)
system.membus.reqLayer1.utilization               0.4                       # Layer utilization (%)
system.membus.reqLayer2.occupancy              314000                       # Layer occupancy (ticks)
system.membus.reqLayer2.utilization               0.0                       # Layer utilization (%)
system.membus.respLayer1.occupancy           46353555                       # Layer occupancy (ticks)
system.membus.respLayer1.utilization              0.0                       # Layer utilization (%)
system.membus.respLayer2.occupancy        13336533181                       # Layer occupancy (ticks)
system.membus.respLayer2.utilization              0.5                       # Layer utilization (%)
system.membus.respLayer3.occupancy        26565352668                       # Layer occupancy (ticks)
system.membus.respLayer3.utilization              1.1                       # Layer utilization (%)
system.iocache.tags.replacements                44450                       # number of replacements
system.iocache.tags.tagsinuse                0.323262                       # Cycle average of tags in use
system.iocache.tags.total_refs                      0                       # Total number of references to valid blocks.
system.iocache.tags.sampled_refs                44450                       # Sample count of references to valid blocks.
system.iocache.tags.avg_refs                        0                       # Average number of references to valid blocks.
system.iocache.tags.warmup_cycle         2475640386000                       # Cycle when the warmup percentage was hit.
system.iocache.tags.occ_blocks::tsunami.ide     0.323262                       # Average occupied blocks per requestor
system.iocache.tags.occ_percent::tsunami.ide     0.020204                       # Average percentage of cache occupancy
system.iocache.tags.occ_percent::total       0.020204                       # Average percentage of cache occupancy
system.iocache.tags.occ_task_id_blocks::1023           16                       # Occupied blocks per task id
system.iocache.tags.age_task_id_blocks_1023::4           16                       # Occupied blocks per task id
system.iocache.tags.occ_task_id_percent::1023            1                       # Percentage of cache occupancy per task id
system.iocache.tags.tag_accesses               400250                       # Number of tag accesses
system.iocache.tags.data_accesses              400250                       # Number of data accesses
system.iocache.WriteInvalidateReq_hits::tsunami.ide        44256                       # number of WriteInvalidateReq hits
system.iocache.WriteInvalidateReq_hits::total        44256                       # number of WriteInvalidateReq hits
system.iocache.ReadReq_misses::tsunami.ide          210                       # number of ReadReq misses
system.iocache.ReadReq_misses::total              210                       # number of ReadReq misses
system.iocache.WriteInvalidateReq_misses::tsunami.ide            7                       # number of WriteInvalidateReq misses
system.iocache.WriteInvalidateReq_misses::total            7                       # number of WriteInvalidateReq misses
system.iocache.demand_misses::tsunami.ide          210                       # number of demand (read+write) misses
system.iocache.demand_misses::total               210                       # number of demand (read+write) misses
system.iocache.overall_misses::tsunami.ide          210                       # number of overall misses
system.iocache.overall_misses::total              210                       # number of overall misses
system.iocache.ReadReq_miss_latency::tsunami.ide     30669100                       # number of ReadReq miss cycles
system.iocache.ReadReq_miss_latency::total     30669100                       # number of ReadReq miss cycles
system.iocache.demand_miss_latency::tsunami.ide     30669100                       # number of demand (read+write) miss cycles
system.iocache.demand_miss_latency::total     30669100                       # number of demand (read+write) miss cycles
system.iocache.overall_miss_latency::tsunami.ide     30669100                       # number of overall miss cycles
system.iocache.overall_miss_latency::total     30669100                       # number of overall miss cycles
system.iocache.ReadReq_accesses::tsunami.ide          210                       # number of ReadReq accesses(hits+misses)
system.iocache.ReadReq_accesses::total            210                       # number of ReadReq accesses(hits+misses)
system.iocache.WriteInvalidateReq_accesses::tsunami.ide        44263                       # number of WriteInvalidateReq accesses(hits+misses)
system.iocache.WriteInvalidateReq_accesses::total        44263                       # number of WriteInvalidateReq accesses(hits+misses)
system.iocache.demand_accesses::tsunami.ide          210                       # number of demand (read+write) accesses
system.iocache.demand_accesses::total             210                       # number of demand (read+write) accesses
system.iocache.overall_accesses::tsunami.ide          210                       # number of overall (read+write) accesses
system.iocache.overall_accesses::total            210                       # number of overall (read+write) accesses
system.iocache.ReadReq_miss_rate::tsunami.ide            1                       # miss rate for ReadReq accesses
system.iocache.ReadReq_miss_rate::total             1                       # miss rate for ReadReq accesses
system.iocache.WriteInvalidateReq_miss_rate::tsunami.ide     0.000158                       # miss rate for WriteInvalidateReq accesses
system.iocache.WriteInvalidateReq_miss_rate::total     0.000158                       # miss rate for WriteInvalidateReq accesses
system.iocache.demand_miss_rate::tsunami.ide            1                       # miss rate for demand accesses
system.iocache.demand_miss_rate::total              1                       # miss rate for demand accesses
system.iocache.overall_miss_rate::tsunami.ide            1                       # miss rate for overall accesses
system.iocache.overall_miss_rate::total             1                       # miss rate for overall accesses
system.iocache.ReadReq_avg_miss_latency::tsunami.ide 146043.333333                       # average ReadReq miss latency
system.iocache.ReadReq_avg_miss_latency::total 146043.333333                       # average ReadReq miss latency
system.iocache.demand_avg_miss_latency::tsunami.ide 146043.333333                       # average overall miss latency
system.iocache.demand_avg_miss_latency::total 146043.333333                       # average overall miss latency
system.iocache.overall_avg_miss_latency::tsunami.ide 146043.333333                       # average overall miss latency
system.iocache.overall_avg_miss_latency::total 146043.333333                       # average overall miss latency
system.iocache.blocked_cycles::no_mshrs           445                       # number of cycles access was blocked
system.iocache.blocked_cycles::no_targets            0                       # number of cycles access was blocked
system.iocache.blocked::no_mshrs                   45                       # number of cycles access was blocked
system.iocache.blocked::no_targets                  0                       # number of cycles access was blocked
system.iocache.avg_blocked_cycles::no_mshrs     9.888889                       # average number of cycles each access was blocked
system.iocache.avg_blocked_cycles::no_targets          nan                       # average number of cycles each access was blocked
system.iocache.fast_writes                      44256                       # number of fast writes performed
system.iocache.cache_copies                         0                       # number of cache copies performed
system.iocache.ReadReq_mshr_misses::tsunami.ide          210                       # number of ReadReq MSHR misses
system.iocache.ReadReq_mshr_misses::total          210                       # number of ReadReq MSHR misses
system.iocache.WriteInvalidateReq_mshr_misses::tsunami.ide        44256                       # number of WriteInvalidateReq MSHR misses
system.iocache.WriteInvalidateReq_mshr_misses::total        44256                       # number of WriteInvalidateReq MSHR misses
system.iocache.demand_mshr_misses::tsunami.ide          210                       # number of demand (read+write) MSHR misses
system.iocache.demand_mshr_misses::total          210                       # number of demand (read+write) MSHR misses
system.iocache.overall_mshr_misses::tsunami.ide          210                       # number of overall MSHR misses
system.iocache.overall_mshr_misses::total          210                       # number of overall MSHR misses
system.iocache.ReadReq_mshr_miss_latency::tsunami.ide     19745604                       # number of ReadReq MSHR miss cycles
system.iocache.ReadReq_mshr_miss_latency::total     19745604                       # number of ReadReq MSHR miss cycles
system.iocache.WriteInvalidateReq_mshr_miss_latency::tsunami.ide   2995915659                       # number of WriteInvalidateReq MSHR miss cycles
system.iocache.WriteInvalidateReq_mshr_miss_latency::total   2995915659                       # number of WriteInvalidateReq MSHR miss cycles
system.iocache.demand_mshr_miss_latency::tsunami.ide     19745604                       # number of demand (read+write) MSHR miss cycles
system.iocache.demand_mshr_miss_latency::total     19745604                       # number of demand (read+write) MSHR miss cycles
system.iocache.overall_mshr_miss_latency::tsunami.ide     19745604                       # number of overall MSHR miss cycles
system.iocache.overall_mshr_miss_latency::total     19745604                       # number of overall MSHR miss cycles
system.iocache.ReadReq_mshr_miss_rate::tsunami.ide            1                       # mshr miss rate for ReadReq accesses
system.iocache.ReadReq_mshr_miss_rate::total            1                       # mshr miss rate for ReadReq accesses
system.iocache.WriteInvalidateReq_mshr_miss_rate::tsunami.ide     0.999842                       # mshr miss rate for WriteInvalidateReq accesses
system.iocache.WriteInvalidateReq_mshr_miss_rate::total     0.999842                       # mshr miss rate for WriteInvalidateReq accesses
system.iocache.demand_mshr_miss_rate::tsunami.ide            1                       # mshr miss rate for demand accesses
system.iocache.demand_mshr_miss_rate::total            1                       # mshr miss rate for demand accesses
system.iocache.overall_mshr_miss_rate::tsunami.ide            1                       # mshr miss rate for overall accesses
system.iocache.overall_mshr_miss_rate::total            1                       # mshr miss rate for overall accesses
system.iocache.ReadReq_avg_mshr_miss_latency::tsunami.ide 94026.685714                       # average ReadReq mshr miss latency
system.iocache.ReadReq_avg_mshr_miss_latency::total 94026.685714                       # average ReadReq mshr miss latency
system.iocache.WriteInvalidateReq_avg_mshr_miss_latency::tsunami.ide 67695.129677                       # average WriteInvalidateReq mshr miss latency
system.iocache.WriteInvalidateReq_avg_mshr_miss_latency::total 67695.129677                       # average WriteInvalidateReq mshr miss latency
system.iocache.demand_avg_mshr_miss_latency::tsunami.ide 94026.685714                       # average overall mshr miss latency
system.iocache.demand_avg_mshr_miss_latency::total 94026.685714                       # average overall mshr miss latency
system.iocache.overall_avg_mshr_miss_latency::tsunami.ide 94026.685714                       # average overall mshr miss latency
system.iocache.overall_avg_mshr_miss_latency::total 94026.685714                       # average overall mshr miss latency
system.iocache.no_allocate_misses                   0                       # Number of misses that were no-allocate
system.disk0.dma_read_full_pages                    0                       # Number of full page size DMA reads (not PRD).
system.disk0.dma_read_bytes                      4096                       # Number of bytes transfered via DMA reads (not PRD).
system.disk0.dma_read_txs                           1                       # Number of DMA read transactions (not PRD).
system.disk0.dma_write_full_pages                 326                       # Number of full page size DMA writes.
system.disk0.dma_write_bytes                  2824192                       # Number of bytes transfered via DMA writes.
system.disk0.dma_write_txs                        365                       # Number of DMA write transactions.
system.disk2.dma_read_full_pages                    0                       # Number of full page size DMA reads (not PRD).
system.disk2.dma_read_bytes                         0                       # Number of bytes transfered via DMA reads (not PRD).
system.disk2.dma_read_txs                           0                       # Number of DMA read transactions (not PRD).
system.disk2.dma_write_full_pages                   1                       # Number of full page size DMA writes.
system.disk2.dma_write_bytes                     8192                       # Number of bytes transfered via DMA writes.
system.disk2.dma_write_txs                          1                       # Number of DMA write transactions.
system.cpu.branchPred.lookups                26999067                       # Number of BP lookups
system.cpu.branchPred.condPredicted          22857926                       # Number of conditional branches predicted
system.cpu.branchPred.condIncorrect            605908                       # Number of conditional branches incorrect
system.cpu.branchPred.BTBLookups             18096722                       # Number of BTB lookups
system.cpu.branchPred.BTBHits                10167705                       # Number of BTB hits
system.cpu.branchPred.BTBCorrect                    0                       # Number of correct BTB predictions (this stat may not work properly.
system.cpu.branchPred.BTBHitPct             56.185341                       # BTB Hit Percentage
system.cpu.branchPred.usedRAS                 1699594                       # Number of times the RAS was used to get a target.
system.cpu.branchPred.RASInCorrect              37788                       # Number of incorrect RAS predictions.
system.cpu_voltage_domain.voltage                   1                       # Voltage in Volts
system.cpu_clk_domain.clock                      2000                       # Clock period in ticks
system.cpu.dtb.fetch_hits                           0                       # ITB hits
system.cpu.dtb.fetch_misses                         0                       # ITB misses
system.cpu.dtb.fetch_acv                            0                       # ITB acv
system.cpu.dtb.fetch_accesses                       0                       # ITB accesses
system.cpu.dtb.read_hits                     17527754                       # DTB read hits
system.cpu.dtb.read_misses                      79455                       # DTB read misses
system.cpu.dtb.read_acv                           239                       # DTB read access violations
system.cpu.dtb.read_accesses                  1184700                       # DTB read accesses
system.cpu.dtb.write_hits                     8692790                       # DTB write hits
system.cpu.dtb.write_misses                     13171                       # DTB write misses
system.cpu.dtb.write_acv                          512                       # DTB write access violations
system.cpu.dtb.write_accesses                  416158                       # DTB write accesses
system.cpu.dtb.data_hits                     26220544                       # DTB hits
system.cpu.dtb.data_misses                      92626                       # DTB misses
system.cpu.dtb.data_acv                           751                       # DTB access violations
system.cpu.dtb.data_accesses                  1600858                       # DTB accesses
system.cpu.itb.fetch_hits                     2148686                       # ITB hits
system.cpu.itb.fetch_misses                     26536                       # ITB misses
system.cpu.itb.fetch_acv                          664                       # ITB acv
system.cpu.itb.fetch_accesses                 2175222                       # ITB accesses
system.cpu.itb.read_hits                            0                       # DTB read hits
system.cpu.itb.read_misses                          0                       # DTB read misses
system.cpu.itb.read_acv                             0                       # DTB read access violations
system.cpu.itb.read_accesses                        0                       # DTB read accesses
system.cpu.itb.write_hits                           0                       # DTB write hits
system.cpu.itb.write_misses                         0                       # DTB write misses
system.cpu.itb.write_acv                            0                       # DTB write access violations
system.cpu.itb.write_accesses                       0                       # DTB write accesses
system.cpu.itb.data_hits                            0                       # DTB hits
system.cpu.itb.data_misses                          0                       # DTB misses
system.cpu.itb.data_acv                             0                       # DTB access violations
system.cpu.itb.data_accesses                        0                       # DTB accesses
system.cpu.numCycles                        140227731                       # number of cpu cycles simulated
system.cpu.numWorkItemsStarted                      0                       # number of work items this cpu started
system.cpu.numWorkItemsCompleted                    0                       # number of work items this cpu completed
system.cpu.fetch.icacheStallCycles           44659884                       # Number of cycles fetch is stalled on an Icache miss
system.cpu.fetch.Insts                      119989117                       # Number of instructions fetch has processed
system.cpu.fetch.Branches                    26999067                       # Number of branches that fetch encountered
system.cpu.fetch.predictedBranches           11867299                       # Number of branches that fetch has predicted taken
system.cpu.fetch.Cycles                      84856868                       # Number of cycles fetch has run and was not squashing or blocked
system.cpu.fetch.SquashCycles                 1787476                       # Number of cycles fetch has spent squashing
system.cpu.fetch.TlbCycles                       1035                       # Number of cycles fetch has spent waiting for tlb
system.cpu.fetch.MiscStallCycles                45857                       # Number of cycles fetch has spent waiting on interrupts, or bad addresses, or out of MSHRs
system.cpu.fetch.PendingTrapStallCycles        887561                       # Number of stall cycles due to pending traps
system.cpu.fetch.PendingQuiesceStallCycles       404392                       # Number of stall cycles due to pending quiesce instructions
system.cpu.fetch.IcacheWaitRetryStallCycles           92                       # Number of stall cycles due to full MSHR
system.cpu.fetch.CacheLines                  15646900                       # Number of cache lines fetched
system.cpu.fetch.IcacheSquashes                427166                       # Number of outstanding Icache misses that were squashed
system.cpu.fetch.ItlbSquashes                      25                       # Number of outstanding ITLB misses that were squashed
system.cpu.fetch.rateDist::samples          131749440                       # Number of instructions fetched each cycle (Total)
system.cpu.fetch.rateDist::mean              0.910737                       # Number of instructions fetched each cycle (Total)
system.cpu.fetch.rateDist::stdev             2.193185                       # Number of instructions fetched each cycle (Total)
system.cpu.fetch.rateDist::underflows               0      0.00%      0.00% # Number of instructions fetched each cycle (Total)
system.cpu.fetch.rateDist::0                106974850     81.20%     81.20% # Number of instructions fetched each cycle (Total)
system.cpu.fetch.rateDist::1                  2730860      2.07%     83.27% # Number of instructions fetched each cycle (Total)
system.cpu.fetch.rateDist::2                  3524440      2.68%     85.94% # Number of instructions fetched each cycle (Total)
system.cpu.fetch.rateDist::3                  2015130      1.53%     87.47% # Number of instructions fetched each cycle (Total)
system.cpu.fetch.rateDist::4                  4897055      3.72%     91.19% # Number of instructions fetched each cycle (Total)
system.cpu.fetch.rateDist::5                  1207554      0.92%     92.11% # Number of instructions fetched each cycle (Total)
system.cpu.fetch.rateDist::6                  1899867      1.44%     93.55% # Number of instructions fetched each cycle (Total)
system.cpu.fetch.rateDist::7                   858677      0.65%     94.20% # Number of instructions fetched each cycle (Total)
system.cpu.fetch.rateDist::8                  7641007      5.80%    100.00% # Number of instructions fetched each cycle (Total)
system.cpu.fetch.rateDist::overflows                0      0.00%    100.00% # Number of instructions fetched each cycle (Total)
system.cpu.fetch.rateDist::min_value                0                       # Number of instructions fetched each cycle (Total)
system.cpu.fetch.rateDist::max_value                8                       # Number of instructions fetched each cycle (Total)
system.cpu.fetch.rateDist::total            131749440                       # Number of instructions fetched each cycle (Total)
system.cpu.fetch.branchRate                  0.192537                       # Number of branch fetches per cycle
system.cpu.fetch.rate                        0.855673                       # Number of inst fetches per cycle
system.cpu.decode.IdleCycles                 35922371                       # Number of cycles decode is idle
system.cpu.decode.BlockedCycles              76432238                       # Number of cycles decode is blocked
system.cpu.decode.RunCycles                  14829398                       # Number of cycles decode is running
system.cpu.decode.UnblockCycles               3747244                       # Number of cycles decode is unblocking
system.cpu.decode.SquashCycles                 818188                       # Number of cycles decode is squashing
system.cpu.decode.BranchResolved               918751                       # Number of times decode resolved a branch
system.cpu.decode.BranchMispred                 76173                       # Number of times decode detected a branch misprediction
system.cpu.decode.DecodedInsts              107396504                       # Number of instructions handled by decode
system.cpu.decode.SquashedInsts                211170                       # Number of squashed instructions handled by decode
system.cpu.rename.SquashCycles                 818188                       # Number of cycles rename is squashing
system.cpu.rename.IdleCycles                 37614406                       # Number of cycles rename is idle
system.cpu.rename.BlockCycles                39642282                       # Number of cycles rename is blocking
system.cpu.rename.serializeStallCycles       24992915                       # count of cycles rename stalled for serializing inst
system.cpu.rename.RunCycles                  16741582                       # Number of cycles rename is running
system.cpu.rename.UnblockCycles              11940065                       # Number of cycles rename is unblocking
system.cpu.rename.RenamedInsts              104202282                       # Number of instructions processed by rename
system.cpu.rename.ROBFullEvents                166628                       # Number of times rename has blocked due to ROB full
system.cpu.rename.IQFullEvents                7854658                       # Number of times rename has blocked due to IQ full
system.cpu.rename.LQFullEvents                 649527                       # Number of times rename has blocked due to LQ full
system.cpu.rename.SQFullEvents                1165490                       # Number of times rename has blocked due to SQ full
system.cpu.rename.RenamedOperands            75092667                       # Number of destination operands rename has renamed
system.cpu.rename.RenameLookups             133842644                       # Number of register rename lookups that rename has made
system.cpu.rename.int_rename_lookups        133640869                       # Number of integer rename lookups
system.cpu.rename.fp_rename_lookups            187546                       # Number of floating rename lookups
system.cpu.rename.CommittedMaps              66029750                       # Number of HB maps that are committed
system.cpu.rename.UndoneMaps                  9062909                       # Number of HB maps that are undone due to squashing
system.cpu.rename.serializingInsts            1971675                       # count of serializing insts renamed
system.cpu.rename.tempSerializingInsts         317008                       # count of temporary serializing insts renamed
system.cpu.rename.skidInsts                  24580064                       # count of insts added to the skid buffer
system.cpu.memDep0.insertedLoads             18094570                       # Number of loads inserted to the mem dependence unit.
system.cpu.memDep0.insertedStores             9122548                       # Number of stores inserted to the mem dependence unit.
system.cpu.memDep0.conflictingLoads           2484647                       # Number of conflicting loads.
system.cpu.memDep0.conflictingStores          1628100                       # Number of conflicting stores.
system.cpu.iq.iqInstsAdded                   97674836                       # Number of instructions added to the IQ (excludes non-spec)
system.cpu.iq.iqNonSpecInstsAdded             2683260                       # Number of non-speculative instructions added to the IQ
system.cpu.iq.iqInstsIssued                  95457397                       # Number of instructions issued
system.cpu.iq.iqSquashedInstsIssued             86470                       # Number of squashed instructions issued
system.cpu.iq.iqSquashedInstsExamined        11304283                       # Number of squashed instructions iterated over during squash; mainly for profiling
system.cpu.iq.iqSquashedOperandsExamined      5640719                       # Number of squashed operands that are examined and possibly removed from graph
system.cpu.iq.iqSquashedNonSpecRemoved        1700765                       # Number of squashed non-spec instructions that were removed
system.cpu.iq.issued_per_cycle::samples     131749440                       # Number of insts issued each cycle
system.cpu.iq.issued_per_cycle::mean         0.724537                       # Number of insts issued each cycle
system.cpu.iq.issued_per_cycle::stdev        1.417265                       # Number of insts issued each cycle
system.cpu.iq.issued_per_cycle::underflows            0      0.00%      0.00% # Number of insts issued each cycle
system.cpu.iq.issued_per_cycle::0            90617475     68.78%     68.78% # Number of insts issued each cycle
system.cpu.iq.issued_per_cycle::1            19057889     14.47%     83.25% # Number of insts issued each cycle
system.cpu.iq.issued_per_cycle::2             7925602      6.02%     89.26% # Number of insts issued each cycle
system.cpu.iq.issued_per_cycle::3             4767965      3.62%     92.88% # Number of insts issued each cycle
system.cpu.iq.issued_per_cycle::4             4595302      3.49%     96.37% # Number of insts issued each cycle
system.cpu.iq.issued_per_cycle::5             2305986      1.75%     98.12% # Number of insts issued each cycle
system.cpu.iq.issued_per_cycle::6             1395297      1.06%     99.18% # Number of insts issued each cycle
system.cpu.iq.issued_per_cycle::7              709903      0.54%     99.72% # Number of insts issued each cycle
system.cpu.iq.issued_per_cycle::8              374021      0.28%    100.00% # Number of insts issued each cycle
system.cpu.iq.issued_per_cycle::overflows            0      0.00%    100.00% # Number of insts issued each cycle
system.cpu.iq.issued_per_cycle::min_value            0                       # Number of insts issued each cycle
system.cpu.iq.issued_per_cycle::max_value            8                       # Number of insts issued each cycle
system.cpu.iq.issued_per_cycle::total       131749440                       # Number of insts issued each cycle
system.cpu.iq.fu_full::No_OpClass                   0      0.00%      0.00% # attempts to use FU when none available
system.cpu.iq.fu_full::IntAlu                  469306     26.36%     26.36% # attempts to use FU when none available
system.cpu.iq.fu_full::IntMult                      4      0.00%     26.36% # attempts to use FU when none available
system.cpu.iq.fu_full::IntDiv                       0      0.00%     26.36% # attempts to use FU when none available
system.cpu.iq.fu_full::FloatAdd                     0      0.00%     26.36% # attempts to use FU when none available
system.cpu.iq.fu_full::FloatCmp                     0      0.00%     26.36% # attempts to use FU when none available
system.cpu.iq.fu_full::FloatCvt                     0      0.00%     26.36% # attempts to use FU when none available
system.cpu.iq.fu_full::FloatMult                    0      0.00%     26.36% # attempts to use FU when none available
system.cpu.iq.fu_full::FloatDiv                     0      0.00%     26.36% # attempts to use FU when none available
system.cpu.iq.fu_full::FloatSqrt                    0      0.00%     26.36% # attempts to use FU when none available
system.cpu.iq.fu_full::SimdAdd                      0      0.00%     26.36% # attempts to use FU when none available
system.cpu.iq.fu_full::SimdAddAcc                   0      0.00%     26.36% # attempts to use FU when none available
system.cpu.iq.fu_full::SimdAlu                      0      0.00%     26.36% # attempts to use FU when none available
system.cpu.iq.fu_full::SimdCmp                      0      0.00%     26.36% # attempts to use FU when none available
system.cpu.iq.fu_full::SimdCvt                      0      0.00%     26.36% # attempts to use FU when none available
system.cpu.iq.fu_full::SimdMisc                     0      0.00%     26.36% # attempts to use FU when none available
system.cpu.iq.fu_full::SimdMult                     0      0.00%     26.36% # attempts to use FU when none available
system.cpu.iq.fu_full::SimdMultAcc                  0      0.00%     26.36% # attempts to use FU when none available
system.cpu.iq.fu_full::SimdShift                    0      0.00%     26.36% # attempts to use FU when none available
system.cpu.iq.fu_full::SimdShiftAcc                 0      0.00%     26.36% # attempts to use FU when none available
system.cpu.iq.fu_full::SimdSqrt                     0      0.00%     26.36% # attempts to use FU when none available
system.cpu.iq.fu_full::SimdFloatAdd                 0      0.00%     26.36% # attempts to use FU when none available
system.cpu.iq.fu_full::SimdFloatAlu                 0      0.00%     26.36% # attempts to use FU when none available
system.cpu.iq.fu_full::SimdFloatCmp                 0      0.00%     26.36% # attempts to use FU when none available
system.cpu.iq.fu_full::SimdFloatCvt                 0      0.00%     26.36% # attempts to use FU when none available
system.cpu.iq.fu_full::SimdFloatDiv                 0      0.00%     26.36% # attempts to use FU when none available
system.cpu.iq.fu_full::SimdFloatMisc                0      0.00%     26.36% # attempts to use FU when none available
system.cpu.iq.fu_full::SimdFloatMult                0      0.00%     26.36% # attempts to use FU when none available
system.cpu.iq.fu_full::SimdFloatMultAcc             0      0.00%     26.36% # attempts to use FU when none available
system.cpu.iq.fu_full::SimdFloatSqrt                0      0.00%     26.36% # attempts to use FU when none available
system.cpu.iq.fu_full::MemRead                 782901     43.97%     70.33% # attempts to use FU when none available
system.cpu.iq.fu_full::MemWrite                528392     29.67%    100.00% # attempts to use FU when none available
system.cpu.iq.fu_full::IprAccess                    0      0.00%    100.00% # attempts to use FU when none available
system.cpu.iq.fu_full::InstPrefetch                 0      0.00%    100.00% # attempts to use FU when none available
system.cpu.iq.FU_type_0::No_OpClass              8369      0.01%      0.01% # Type of FU issued
system.cpu.iq.FU_type_0::IntAlu              67037961     70.23%     70.24% # Type of FU issued
system.cpu.iq.FU_type_0::IntMult               159897      0.17%     70.40% # Type of FU issued
system.cpu.iq.FU_type_0::IntDiv                     0      0.00%     70.40% # Type of FU issued
system.cpu.iq.FU_type_0::FloatAdd               86074      0.09%     70.49% # Type of FU issued
system.cpu.iq.FU_type_0::FloatCmp                   0      0.00%     70.49% # Type of FU issued
system.cpu.iq.FU_type_0::FloatCvt                   0      0.00%     70.49% # Type of FU issued
system.cpu.iq.FU_type_0::FloatMult                  0      0.00%     70.49% # Type of FU issued
system.cpu.iq.FU_type_0::FloatDiv                4183      0.00%     70.50% # Type of FU issued
system.cpu.iq.FU_type_0::FloatSqrt                  0      0.00%     70.50% # Type of FU issued
system.cpu.iq.FU_type_0::SimdAdd                    0      0.00%     70.50% # Type of FU issued
system.cpu.iq.FU_type_0::SimdAddAcc                 0      0.00%     70.50% # Type of FU issued
system.cpu.iq.FU_type_0::SimdAlu                    0      0.00%     70.50% # Type of FU issued
system.cpu.iq.FU_type_0::SimdCmp                    0      0.00%     70.50% # Type of FU issued
system.cpu.iq.FU_type_0::SimdCvt                    0      0.00%     70.50% # Type of FU issued
system.cpu.iq.FU_type_0::SimdMisc                   0      0.00%     70.50% # Type of FU issued
system.cpu.iq.FU_type_0::SimdMult                   0      0.00%     70.50% # Type of FU issued
system.cpu.iq.FU_type_0::SimdMultAcc                0      0.00%     70.50% # Type of FU issued
system.cpu.iq.FU_type_0::SimdShift                  0      0.00%     70.50% # Type of FU issued
system.cpu.iq.FU_type_0::SimdShiftAcc               0      0.00%     70.50% # Type of FU issued
system.cpu.iq.FU_type_0::SimdSqrt                   0      0.00%     70.50% # Type of FU issued
system.cpu.iq.FU_type_0::SimdFloatAdd               0      0.00%     70.50% # Type of FU issued
system.cpu.iq.FU_type_0::SimdFloatAlu               0      0.00%     70.50% # Type of FU issued
system.cpu.iq.FU_type_0::SimdFloatCmp               0      0.00%     70.50% # Type of FU issued
system.cpu.iq.FU_type_0::SimdFloatCvt               0      0.00%     70.50% # Type of FU issued
system.cpu.iq.FU_type_0::SimdFloatDiv               0      0.00%     70.50% # Type of FU issued
system.cpu.iq.FU_type_0::SimdFloatMisc              0      0.00%     70.50% # Type of FU issued
system.cpu.iq.FU_type_0::SimdFloatMult              0      0.00%     70.50% # Type of FU issued
system.cpu.iq.FU_type_0::SimdFloatMultAcc            0      0.00%     70.50% # Type of FU issued
system.cpu.iq.FU_type_0::SimdFloatSqrt              0      0.00%     70.50% # Type of FU issued
system.cpu.iq.FU_type_0::MemRead             18207102     19.07%     89.57% # Type of FU issued
system.cpu.iq.FU_type_0::MemWrite             8873290      9.30%     98.87% # Type of FU issued
system.cpu.iq.FU_type_0::IprAccess            1080521      1.13%    100.00% # Type of FU issued
system.cpu.iq.FU_type_0::InstPrefetch               0      0.00%    100.00% # Type of FU issued
system.cpu.iq.FU_type_0::total               95457397                       # Type of FU issued
system.cpu.iq.rate                           0.680731                       # Inst issue rate
system.cpu.iq.fu_busy_cnt                     1780603                       # FU busy when requested
system.cpu.iq.fu_busy_rate                   0.018653                       # FU busy rate (busy events/executed inst)
system.cpu.iq.int_inst_queue_reads          323662030                       # Number of integer instruction queue reads
system.cpu.iq.int_inst_queue_writes         111280738                       # Number of integer instruction queue writes
system.cpu.iq.int_inst_queue_wakeup_accesses     93409808                       # Number of integer instruction queue wakeup accesses
system.cpu.iq.fp_inst_queue_reads              869276                       # Number of floating instruction queue reads
system.cpu.iq.fp_inst_queue_writes             417458                       # Number of floating instruction queue writes
system.cpu.iq.fp_inst_queue_wakeup_accesses       403636                       # Number of floating instruction queue wakeup accesses
system.cpu.iq.int_alu_accesses               96766821                       # Number of integer alu accesses
system.cpu.iq.fp_alu_accesses                  462810                       # Number of floating point alu accesses
system.cpu.iew.lsq.thread0.forwLoads           835054                       # Number of loads that had data forwarded from stores
system.cpu.iew.lsq.thread0.invAddrLoads             0                       # Number of loads ignored due to an invalid address
system.cpu.iew.lsq.thread0.squashedLoads      2185987                       # Number of loads squashed
system.cpu.iew.lsq.thread0.ignoredResponses         3142                       # Number of memory responses ignored because the instruction is squashed
system.cpu.iew.lsq.thread0.memOrderViolation        36428                       # Number of memory ordering violations
[...]
system.cpu.dcache.WriteReq_accesses::cpu.data       130143                       # number of WriteReq accesses(hits+misses)
system.cpu.dcache.WriteReq_accesses::total       130143                       # number of WriteReq accesses(hits+misses)
system.cpu.dcache.LoadLockedReq_accesses::cpu.data         2694                       # number of LoadLockedReq accesses(hits+misses)
system.cpu.dcache.LoadLockedReq_accesses::total         2694                       # number of LoadLockedReq accesses(hits+misses)
system.cpu.dcache.StoreCondReq_accesses::cpu.data         2452                       # number of StoreCondReq accesses(hits+misses)
system.cpu.dcache.StoreCondReq_accesses::total         2452                       # number of StoreCondReq accesses(hits+misses)
system.cpu.dcache.demand_accesses::cpu.data       286227                       # number of demand (read+write) accesses
system.cpu.dcache.demand_accesses::total       286227                       # number of demand (read+write) accesses
system.cpu.dcache.overall_accesses::cpu.data       286227                       # number of overall (read+write) accesses
system.cpu.dcache.overall_accesses::total       286227                       # number of overall (read+write) accesses
system.cpu.dcache.ReadReq_miss_rate::cpu.data     0.159453                       # miss rate for ReadReq accesses
system.cpu.dcache.ReadReq_miss_rate::total     0.159453                       # miss rate for ReadReq accesses
system.cpu.dcache.WriteReq_miss_rate::cpu.data     0.529425                       # miss rate for WriteReq accesses
system.cpu.dcache.WriteReq_miss_rate::total     0.529425                       # miss rate for WriteReq accesses
system.cpu.dcache.LoadLockedReq_miss_rate::cpu.data     0.145137                       # miss rate for LoadLockedReq accesses
system.cpu.dcache.LoadLockedReq_miss_rate::total     0.145137                       # miss rate for LoadLockedReq accesses
system.cpu.dcache.StoreCondReq_miss_rate::cpu.data     0.000408                       # miss rate for StoreCondReq accesses
system.cpu.dcache.StoreCondReq_miss_rate::total     0.000408                       # miss rate for StoreCondReq accesses
system.cpu.dcache.demand_miss_rate::cpu.data     0.327673                       # miss rate for demand accesses
system.cpu.dcache.demand_miss_rate::total     0.327673                       # miss rate for demand accesses
system.cpu.dcache.overall_miss_rate::cpu.data     0.327673                       # miss rate for overall accesses
system.cpu.dcache.overall_miss_rate::total     0.327673                       # miss rate for overall accesses
system.cpu.dcache.ReadReq_avg_miss_latency::cpu.data 63963.255344                       # average ReadReq miss latency
system.cpu.dcache.ReadReq_avg_miss_latency::total 63963.255344                       # average ReadReq miss latency
system.cpu.dcache.WriteReq_avg_miss_latency::cpu.data 69657.835561                       # average WriteReq miss latency
system.cpu.dcache.WriteReq_avg_miss_latency::total 69657.835561                       # average WriteReq miss latency
system.cpu.dcache.LoadLockedReq_avg_miss_latency::cpu.data 69020.460358                       # average LoadLockedReq miss latency
system.cpu.dcache.LoadLockedReq_avg_miss_latency::total 69020.460358                       # average LoadLockedReq miss latency
system.cpu.dcache.StoreCondReq_avg_miss_latency::cpu.data        12999                       # average StoreCondReq miss latency
system.cpu.dcache.StoreCondReq_avg_miss_latency::total        12999                       # average StoreCondReq miss latency
system.cpu.dcache.demand_avg_miss_latency::cpu.data 68146.712589                       # average overall miss latency
system.cpu.dcache.demand_avg_miss_latency::total 68146.712589                       # average overall miss latency
system.cpu.dcache.overall_avg_miss_latency::cpu.data 68146.712589                       # average overall miss latency
system.cpu.dcache.overall_avg_miss_latency::total 68146.712589                       # average overall miss latency
system.cpu.dcache.blocked_cycles::no_mshrs        52513                       # number of cycles access was blocked
system.cpu.dcache.blocked_cycles::no_targets            0                       # number of cycles access was blocked
system.cpu.dcache.blocked::no_mshrs              4204                       # number of cycles access was blocked
system.cpu.dcache.blocked::no_targets               0                       # number of cycles access was blocked
system.cpu.dcache.avg_blocked_cycles::no_mshrs    12.491199                       # average number of cycles each access was blocked
system.cpu.dcache.avg_blocked_cycles::no_targets          nan                       # average number of cycles each access was blocked
system.cpu.dcache.fast_writes                       0                       # number of fast writes performed
system.cpu.dcache.cache_copies                      0                       # number of cache copies performed
system.cpu.dcache.writebacks::writebacks        10419                       # number of writebacks
system.cpu.dcache.writebacks::total             10419                       # number of writebacks
system.cpu.dcache.ReadReq_mshr_hits::cpu.data        16993                       # number of ReadReq MSHR hits
system.cpu.dcache.ReadReq_mshr_hits::total        16993                       # number of ReadReq MSHR hits
system.cpu.dcache.WriteReq_mshr_hits::cpu.data        59853                       # number of WriteReq MSHR hits
system.cpu.dcache.WriteReq_mshr_hits::total        59853                       # number of WriteReq MSHR hits
system.cpu.dcache.LoadLockedReq_mshr_hits::cpu.data          192                       # number of LoadLockedReq MSHR hits
system.cpu.dcache.LoadLockedReq_mshr_hits::total          192                       # number of LoadLockedReq MSHR hits
system.cpu.dcache.demand_mshr_hits::cpu.data        76846                       # number of demand (read+write) MSHR hits
system.cpu.dcache.demand_mshr_hits::total        76846                       # number of demand (read+write) MSHR hits
system.cpu.dcache.overall_mshr_hits::cpu.data        76846                       # number of overall MSHR hits
system.cpu.dcache.overall_mshr_hits::total        76846                       # number of overall MSHR hits
system.cpu.dcache.ReadReq_mshr_misses::cpu.data         7895                       # number of ReadReq MSHR misses
system.cpu.dcache.ReadReq_mshr_misses::total         7895                       # number of ReadReq MSHR misses
system.cpu.dcache.WriteReq_mshr_misses::cpu.data         9048                       # number of WriteReq MSHR misses
system.cpu.dcache.WriteReq_mshr_misses::total         9048                       # number of WriteReq MSHR misses
system.cpu.dcache.LoadLockedReq_mshr_misses::cpu.data          199                       # number of LoadLockedReq MSHR misses
system.cpu.dcache.LoadLockedReq_mshr_misses::total          199                       # number of LoadLockedReq MSHR misses
system.cpu.dcache.StoreCondReq_mshr_misses::cpu.data            1                       # number of StoreCondReq MSHR misses
system.cpu.dcache.StoreCondReq_mshr_misses::total            1                       # number of StoreCondReq MSHR misses
system.cpu.dcache.demand_mshr_misses::cpu.data        16943                       # number of demand (read+write) MSHR misses
system.cpu.dcache.demand_mshr_misses::total        16943                       # number of demand (read+write) MSHR misses
system.cpu.dcache.overall_mshr_misses::cpu.data        16943                       # number of overall MSHR misses
system.cpu.dcache.overall_mshr_misses::total        16943                       # number of overall MSHR misses
system.cpu.dcache.ReadReq_mshr_miss_latency::cpu.data    488893001                       # number of ReadReq MSHR miss cycles
system.cpu.dcache.ReadReq_mshr_miss_latency::total    488893001                       # number of ReadReq MSHR miss cycles
system.cpu.dcache.WriteReq_mshr_miss_latency::cpu.data    615681857                       # number of WriteReq MSHR miss cycles
system.cpu.dcache.WriteReq_mshr_miss_latency::total    615681857                       # number of WriteReq MSHR miss cycles
system.cpu.dcache.LoadLockedReq_mshr_miss_latency::cpu.data     12528000                       # number of LoadLockedReq MSHR miss cycles
system.cpu.dcache.LoadLockedReq_mshr_miss_latency::total     12528000                       # number of LoadLockedReq MSHR miss cycles
system.cpu.dcache.StoreCondReq_mshr_miss_latency::cpu.data         4001                       # number of StoreCondReq MSHR miss cycles
system.cpu.dcache.StoreCondReq_mshr_miss_latency::total         4001                       # number of StoreCondReq MSHR miss cycles
system.cpu.dcache.demand_mshr_miss_latency::cpu.data   1104574858                       # number of demand (read+write) MSHR miss cycles
system.cpu.dcache.demand_mshr_miss_latency::total   1104574858                       # number of demand (read+write) MSHR miss cycles
system.cpu.dcache.overall_mshr_miss_latency::cpu.data   1104574858                       # number of overall MSHR miss cycles
system.cpu.dcache.overall_mshr_miss_latency::total   1104574858                       # number of overall MSHR miss cycles
system.cpu.dcache.WriteReq_mshr_uncacheable_latency::cpu.data       408000                       # number of WriteReq MSHR uncacheable cycles
system.cpu.dcache.WriteReq_mshr_uncacheable_latency::total       408000                       # number of WriteReq MSHR uncacheable cycles
system.cpu.dcache.overall_mshr_uncacheable_latency::cpu.data       408000                       # number of overall MSHR uncacheable cycles
system.cpu.dcache.overall_mshr_uncacheable_latency::total       408000                       # number of overall MSHR uncacheable cycles
system.cpu.dcache.ReadReq_mshr_miss_rate::cpu.data     0.050582                       # mshr miss rate for ReadReq accesses
system.cpu.dcache.ReadReq_mshr_miss_rate::total     0.050582                       # mshr miss rate for ReadReq accesses
system.cpu.dcache.WriteReq_mshr_miss_rate::cpu.data     0.069524                       # mshr miss rate for WriteReq accesses
system.cpu.dcache.WriteReq_mshr_miss_rate::total     0.069524                       # mshr miss rate for WriteReq accesses
system.cpu.dcache.LoadLockedReq_mshr_miss_rate::cpu.data     0.073868                       # mshr miss rate for LoadLockedReq accesses
system.cpu.dcache.LoadLockedReq_mshr_miss_rate::total     0.073868                       # mshr miss rate for LoadLockedReq accesses
system.cpu.dcache.StoreCondReq_mshr_miss_rate::cpu.data     0.000408                       # mshr miss rate for StoreCondReq accesses
system.cpu.dcache.StoreCondReq_mshr_miss_rate::total     0.000408                       # mshr miss rate for StoreCondReq accesses
system.cpu.dcache.demand_mshr_miss_rate::cpu.data     0.059194                       # mshr miss rate for demand accesses
system.cpu.dcache.demand_mshr_miss_rate::total     0.059194                       # mshr miss rate for demand accesses
system.cpu.dcache.overall_mshr_miss_rate::cpu.data     0.059194                       # mshr miss rate for overall accesses
system.cpu.dcache.overall_mshr_miss_rate::total     0.059194                       # mshr miss rate for overall accesses
system.cpu.dcache.ReadReq_avg_mshr_miss_latency::cpu.data 61924.382647                       # average ReadReq mshr miss latency
system.cpu.dcache.ReadReq_avg_mshr_miss_latency::total 61924.382647                       # average ReadReq mshr miss latency
system.cpu.dcache.WriteReq_avg_mshr_miss_latency::cpu.data 68046.182250                       # average WriteReq mshr miss latency
system.cpu.dcache.WriteReq_avg_mshr_miss_latency::total 68046.182250                       # average WriteReq mshr miss latency
system.cpu.dcache.LoadLockedReq_avg_mshr_miss_latency::cpu.data 62954.773869                       # average LoadLockedReq mshr miss latency
system.cpu.dcache.LoadLockedReq_avg_mshr_miss_latency::total 62954.773869                       # average LoadLockedReq mshr miss latency
system.cpu.dcache.StoreCondReq_avg_mshr_miss_latency::cpu.data         4001                       # average StoreCondReq mshr miss latency
system.cpu.dcache.StoreCondReq_avg_mshr_miss_latency::total         4001                       # average StoreCondReq mshr miss latency
system.cpu.dcache.demand_avg_mshr_miss_latency::cpu.data 65193.581892                       # average overall mshr miss latency
system.cpu.dcache.demand_avg_mshr_miss_latency::total 65193.581892                       # average overall mshr miss latency
system.cpu.dcache.overall_avg_mshr_miss_latency::cpu.data 65193.581892                       # average overall mshr miss latency
system.cpu.dcache.overall_avg_mshr_miss_latency::total 65193.581892                       # average overall mshr miss latency
system.cpu.dcache.WriteReq_avg_mshr_uncacheable_latency::cpu.data          inf                       # average WriteReq mshr uncacheable latency
system.cpu.dcache.WriteReq_avg_mshr_uncacheable_latency::total          inf                       # average WriteReq mshr uncacheable latency
system.cpu.dcache.overall_avg_mshr_uncacheable_latency::cpu.data          inf                       # average overall mshr uncacheable latency
system.cpu.dcache.overall_avg_mshr_uncacheable_latency::total          inf                       # average overall mshr uncacheable latency
system.cpu.dcache.no_allocate_misses                0                       # Number of misses that were no-allocate
system.cpu.kern.inst.arm                            0                       # number of arm instructions executed
system.cpu.kern.inst.quiesce                        0                       # number of quiesce instructions executed
system.cpu.kern.inst.hwrei                       2705                       # number of hwrei instructions executed
system.cpu.kern.ipl_count::0                      569     48.59%     48.59% # number of times we switched to this ipl
system.cpu.kern.ipl_count::22                       2      0.17%     48.76% # number of times we switched to this ipl
system.cpu.kern.ipl_count::31                     600     51.24%    100.00% # number of times we switched to this ipl
system.cpu.kern.ipl_count::total                 1171                       # number of times we switched to this ipl
system.cpu.kern.ipl_good::0                       567     49.91%     49.91% # number of times we switched to this ipl from a different ipl
system.cpu.kern.ipl_good::22                        2      0.18%     50.09% # number of times we switched to this ipl from a different ipl
system.cpu.kern.ipl_good::31                      567     49.91%    100.00% # number of times we switched to this ipl from a different ipl
system.cpu.kern.ipl_good::total                  1136                       # number of times we switched to this ipl from a different ipl
system.cpu.kern.ipl_ticks::0               1893122000     89.97%     89.97% # number of cycles we spent at this ipl
system.cpu.kern.ipl_ticks::22                 2058000      0.10%     90.06% # number of cycles we spent at this ipl
system.cpu.kern.ipl_ticks::31               209094000      9.94%    100.00% # number of cycles we spent at this ipl
system.cpu.kern.ipl_ticks::total           2104274000                       # number of cycles we spent at this ipl
system.cpu.kern.ipl_used::0                  0.996485                       # fraction of swpipl calls that actually changed the ipl
system.cpu.kern.ipl_used::22                        1                       # fraction of swpipl calls that actually changed the ipl
system.cpu.kern.ipl_used::31                 0.945000                       # fraction of swpipl calls that actually changed the ipl
system.cpu.kern.ipl_used::total              0.970111                       # fraction of swpipl calls that actually changed the ipl
system.cpu.kern.syscall::2                          1      5.88%      5.88% # number of syscalls executed
system.cpu.kern.syscall::3                          2     11.76%     17.65% # number of syscalls executed
system.cpu.kern.syscall::6                          2     11.76%     29.41% # number of syscalls executed
system.cpu.kern.syscall::17                         1      5.88%     35.29% # number of syscalls executed
system.cpu.kern.syscall::33                         1      5.88%     41.18% # number of syscalls executed
system.cpu.kern.syscall::45                         3     17.65%     58.82% # number of syscalls executed
system.cpu.kern.syscall::48                         1      5.88%     64.71% # number of syscalls executed
system.cpu.kern.syscall::59                         1      5.88%     70.59% # number of syscalls executed
system.cpu.kern.syscall::71                         4     23.53%     94.12% # number of syscalls executed
system.cpu.kern.syscall::74                         1      5.88%    100.00% # number of syscalls executed
system.cpu.kern.syscall::total                     17                       # number of syscalls executed
system.cpu.kern.callpal::swpctx                   121      9.02%      9.02% # number of callpals executed
system.cpu.kern.callpal::tbi                        6      0.45%      9.47% # number of callpals executed
system.cpu.kern.callpal::swpipl                   980     73.08%     82.55% # number of callpals executed
system.cpu.kern.callpal::rdps                       5      0.37%     82.92% # number of callpals executed
system.cpu.kern.callpal::wrusp                      1      0.07%     83.00% # number of callpals executed
system.cpu.kern.callpal::rdusp                      1      0.07%     83.07% # number of callpals executed
system.cpu.kern.callpal::rti                      189     14.09%     97.17% # number of callpals executed
system.cpu.kern.callpal::callsys                   34      2.54%     99.70% # number of callpals executed
system.cpu.kern.callpal::imb                        4      0.30%    100.00% # number of callpals executed
system.cpu.kern.callpal::total                   1341                       # number of callpals executed
system.cpu.kern.mode_switch::kernel               310                       # number of protection mode switches
system.cpu.kern.mode_switch::user                 185                       # number of protection mode switches
system.cpu.kern.mode_switch::idle                   0                       # number of protection mode switches
system.cpu.kern.mode_good::kernel                 185                      
system.cpu.kern.mode_good::user                   185                      
system.cpu.kern.mode_good::idle                     0                      
system.cpu.kern.mode_switch_good::kernel     0.596774                       # fraction of useful protection mode switches
system.cpu.kern.mode_switch_good::user              1                       # fraction of useful protection mode switches
system.cpu.kern.mode_switch_good::idle            nan                       # fraction of useful protection mode switches
system.cpu.kern.mode_switch_good::total      0.747475                       # fraction of useful protection mode switches
system.cpu.kern.mode_ticks::kernel         1360428000     64.65%     64.65% # number of ticks spent at the given mode
system.cpu.kern.mode_ticks::user            743846000     35.35%    100.00% # number of ticks spent at the given mode
system.cpu.kern.mode_ticks::idle                    0      0.00%    100.00% # number of ticks spent at the given mode
system.cpu.kern.swap_context                      121                       # number of times the context was actually changed

---------- End Simulation Statistics   ----------
