
---------- Begin Simulation Statistics ----------
sim_seconds                                  2.491180                       # Number of seconds simulated
sim_ticks                                2491180039040                       # Number of ticks simulated
final_tick                               2491180039040                       # Number of ticks from beginning of simulation (restored from checkpoints and never reset)
sim_freq                                 1000000000000                       # Frequency of simulated ticks
host_inst_rate                                 207246                       # Simulator instruction rate (inst/s)
host_op_rate                                   207246                       # Simulator op (including micro ops) rate (op/s)
host_tick_rate                             5835189865                       # Simulator tick rate (ticks/s)
host_mem_usage                                 458480                       # Number of bytes of host memory used
host_seconds                                   426.92                       # Real time elapsed on the host
sim_insts                                    88478111                       # Number of instructions simulated
sim_ops                                      88478111                       # Number of ops (including micro ops) simulated
system.voltage_domain.voltage                       1                       # Voltage in Volts
system.clk_domain.clock                          1000                       # Clock period in ticks
system.mem_ctrls.bytes_read::cpu.inst        90928832                       # Number of bytes read from this memory
system.mem_ctrls.bytes_read::cpu.data       182306560                       # Number of bytes read from this memory
system.mem_ctrls.bytes_read::tsunami.ide         5440                       # Number of bytes read from this memory
system.mem_ctrls.bytes_read::total          273240832                       # Number of bytes read from this memory
system.mem_ctrls.bytes_inst_read::cpu.inst     90928832                       # Number of instructions bytes read from this memory
system.mem_ctrls.bytes_inst_read::total      90928832                       # Number of instructions bytes read from this memory
system.mem_ctrls.bytes_written::writebacks     31253888                       # Number of bytes written to this memory
system.mem_ctrls.bytes_written::tsunami.ide      2832384                       # Number of bytes written to this memory
system.mem_ctrls.bytes_written::total        34086272                       # Number of bytes written to this memory
system.mem_ctrls.num_reads::cpu.inst          1420763                       # Number of read requests responded to by this memory
system.mem_ctrls.num_reads::cpu.data          2848540                       # Number of read requests responded to by this memory
system.mem_ctrls.num_reads::tsunami.ide            85                       # Number of read requests responded to by this memory
system.mem_ctrls.num_reads::total             4269388                       # Number of read requests responded to by this memory
system.mem_ctrls.num_writes::writebacks        488342                       # Number of write requests responded to by this memory
system.mem_ctrls.num_writes::tsunami.ide        44256                       # Number of write requests responded to by this memory
system.mem_ctrls.num_writes::total             532598                       # Number of write requests responded to by this memory
system.mem_ctrls.bw_read::cpu.inst           36500305                       # Total read bandwidth from this memory (bytes/s)
system.mem_ctrls.bw_read::cpu.data           73180805                       # Total read bandwidth from this memory (bytes/s)
system.mem_ctrls.bw_read::tsunami.ide            2184                       # Total read bandwidth from this memory (bytes/s)
system.mem_ctrls.bw_read::total             109683294                       # Total read bandwidth from this memory (bytes/s)
system.mem_ctrls.bw_inst_read::cpu.inst      36500305                       # Instruction read bandwidth from this memory (bytes/s)
system.mem_ctrls.bw_inst_read::total         36500305                       # Instruction read bandwidth from this memory (bytes/s)
system.mem_ctrls.bw_write::writebacks        12545817                       # Write bandwidth from this memory (bytes/s)
system.mem_ctrls.bw_write::tsunami.ide        1136965                       # Write bandwidth from this memory (bytes/s)
system.mem_ctrls.bw_write::total             13682781                       # Write bandwidth from this memory (bytes/s)
system.mem_ctrls.bw_total::writebacks        12545817                       # Total bandwidth to/from this memory (bytes/s)
system.mem_ctrls.bw_total::cpu.inst          36500305                       # Total bandwidth to/from this memory (bytes/s)
system.mem_ctrls.bw_total::cpu.data          73180805                       # Total bandwidth to/from this memory (bytes/s)
system.mem_ctrls.bw_total::tsunami.ide        1139148                       # Total bandwidth to/from this memory (bytes/s)
system.mem_ctrls.bw_total::total            123366075                       # Total bandwidth to/from this memory (bytes/s)
system.mem_ctrls.readReqs                     4269388                       # Number of read requests accepted
system.mem_ctrls.writeReqs                     532598                       # Number of write requests accepted
system.mem_ctrls.readBursts                   4269388                       # Number of DRAM read bursts, including those serviced by the write queue
system.mem_ctrls.writeBursts                   532598                       # Number of DRAM write bursts, including those merged in the write queue
system.mem_ctrls.bytesReadDRAM              271022784                       # Total number of bytes read from DRAM
system.mem_ctrls.bytesReadWrQ                 2218048                       # Total number of bytes read from write queue
system.mem_ctrls.bytesWritten                33734784                       # Total number of bytes written to DRAM
system.mem_ctrls.bytesReadSys               273240832                       # Total read bytes from the system interface side
system.mem_ctrls.bytesWrittenSys             34086272                       # Total written bytes from the system interface side
system.mem_ctrls.servicedByWrQ                  34657                       # Number of DRAM read bursts serviced by the write queue
system.mem_ctrls.mergedWrBursts                  5475                       # Number of DRAM write bursts merged with an existing one
system.mem_ctrls.neitherReadNorWriteReqs          232                       # Number of requests that are neither read nor write
system.mem_ctrls.perBankRdBursts::0            345238                       # Per bank write bursts
system.mem_ctrls.perBankRdBursts::1            263036                       # Per bank write bursts
system.mem_ctrls.perBankRdBursts::2            180050                       # Per bank write bursts
system.mem_ctrls.perBankRdBursts::3            207657                       # Per bank write bursts
system.mem_ctrls.perBankRdBursts::4            170055                       # Per bank write bursts
system.mem_ctrls.perBankRdBursts::5            227449                       # Per bank write bursts
system.mem_ctrls.perBankRdBursts::6            317491                       # Per bank write bursts
system.mem_ctrls.perBankRdBursts::7            181675                       # Per bank write bursts
system.mem_ctrls.perBankRdBursts::8            282673                       # Per bank write bursts
system.mem_ctrls.perBankRdBursts::9            292373                       # Per bank write bursts
system.mem_ctrls.perBankRdBursts::10           327126                       # Per bank write bursts
system.mem_ctrls.perBankRdBursts::11           326101                       # Per bank write bursts
system.mem_ctrls.perBankRdBursts::12           296016                       # Per bank write bursts
system.mem_ctrls.perBankRdBursts::13           270442                       # Per bank write bursts
system.mem_ctrls.perBankRdBursts::14           255627                       # Per bank write bursts
system.mem_ctrls.perBankRdBursts::15           291722                       # Per bank write bursts
system.mem_ctrls.perBankWrBursts::0             55877                       # Per bank write bursts
system.mem_ctrls.perBankWrBursts::1             34674                       # Per bank write bursts
system.mem_ctrls.perBankWrBursts::2             21777                       # Per bank write bursts
system.mem_ctrls.perBankWrBursts::3             23860                       # Per bank write bursts
system.mem_ctrls.perBankWrBursts::4             19285                       # Per bank write bursts
system.mem_ctrls.perBankWrBursts::5             18120                       # Per bank write bursts
system.mem_ctrls.perBankWrBursts::6             19254                       # Per bank write bursts
system.mem_ctrls.perBankWrBursts::7             29481                       # Per bank write bursts
system.mem_ctrls.perBankWrBursts::8             52308                       # Per bank write bursts
system.mem_ctrls.perBankWrBursts::9             28965                       # Per bank write bursts
system.mem_ctrls.perBankWrBursts::10            27640                       # Per bank write bursts
system.mem_ctrls.perBankWrBursts::11            57930                       # Per bank write bursts
system.mem_ctrls.perBankWrBursts::12            37580                       # Per bank write bursts
system.mem_ctrls.perBankWrBursts::13            46152                       # Per bank write bursts
system.mem_ctrls.perBankWrBursts::14            23084                       # Per bank write bursts
system.mem_ctrls.perBankWrBursts::15            31119                       # Per bank write bursts
system.mem_ctrls.numRdRetry                         0                       # Number of times read queue was full causing retry
system.mem_ctrls.numWrRetry                        30                       # Number of times write queue was full causing retry
system.mem_ctrls.totGap                  2491179981312                       # Total gap between requests
system.mem_ctrls.readPktSize::0                     0                       # Read request sizes (log2)
system.mem_ctrls.readPktSize::1                     0                       # Read request sizes (log2)
system.mem_ctrls.readPktSize::2                     0                       # Read request sizes (log2)
system.mem_ctrls.readPktSize::3                     0                       # Read request sizes (log2)
system.mem_ctrls.readPktSize::4                     0                       # Read request sizes (log2)
system.mem_ctrls.readPktSize::5                     0                       # Read request sizes (log2)
system.mem_ctrls.readPktSize::6               4269388                       # Read request sizes (log2)
system.mem_ctrls.writePktSize::0                    0                       # Write request sizes (log2)
system.mem_ctrls.writePktSize::1                    0                       # Write request sizes (log2)
system.mem_ctrls.writePktSize::2                    0                       # Write request sizes (log2)
system.mem_ctrls.writePktSize::3                    0                       # Write request sizes (log2)
system.mem_ctrls.writePktSize::4                    0                       # Write request sizes (log2)
system.mem_ctrls.writePktSize::5                    0                       # Write request sizes (log2)
system.mem_ctrls.writePktSize::6               532598                       # Write request sizes (log2)
system.mem_ctrls.rdQLenPdf::0                 3033160                       # What read queue length does an incoming req see
system.mem_ctrls.rdQLenPdf::1                  972665                       # What read queue length does an incoming req see
system.mem_ctrls.rdQLenPdf::2                  188240                       # What read queue length does an incoming req see
system.mem_ctrls.rdQLenPdf::3                   38278                       # What read queue length does an incoming req see
system.mem_ctrls.rdQLenPdf::4                    2283                       # What read queue length does an incoming req see
system.mem_ctrls.rdQLenPdf::5                      77                       # What read queue length does an incoming req see
system.mem_ctrls.rdQLenPdf::6                       8                       # What read queue length does an incoming req see
system.mem_ctrls.rdQLenPdf::7                       5                       # What read queue length does an incoming req see
system.mem_ctrls.rdQLenPdf::8                       2                       # What read queue length does an incoming req see
system.mem_ctrls.rdQLenPdf::9                       1                       # What read queue length does an incoming req see
system.mem_ctrls.rdQLenPdf::10                      1                       # What read queue length does an incoming req see
system.mem_ctrls.rdQLenPdf::11                      1                       # What read queue length does an incoming req see
system.mem_ctrls.rdQLenPdf::12                      1                       # What read queue length does an incoming req see
system.mem_ctrls.rdQLenPdf::13                      1                       # What read queue length does an incoming req see
system.mem_ctrls.rdQLenPdf::14                      1                       # What read queue length does an incoming req see
system.mem_ctrls.rdQLenPdf::15                      1                       # What read queue length does an incoming req see
system.mem_ctrls.rdQLenPdf::16                      2                       # What read queue length does an incoming req see
system.mem_ctrls.rdQLenPdf::17                      1                       # What read queue length does an incoming req see
system.mem_ctrls.rdQLenPdf::18                      1                       # What read queue length does an incoming req see
system.mem_ctrls.rdQLenPdf::19                      1                       # What read queue length does an incoming req see
system.mem_ctrls.rdQLenPdf::20                      1                       # What read queue length does an incoming req see
system.mem_ctrls.rdQLenPdf::21                      0                       # What read queue length does an incoming req see
system.mem_ctrls.rdQLenPdf::22                      0                       # What read queue length does an incoming req see
system.mem_ctrls.rdQLenPdf::23                      0                       # What read queue length does an incoming req see
system.mem_ctrls.rdQLenPdf::24                      0                       # What read queue length does an incoming req see
system.mem_ctrls.rdQLenPdf::25                      0                       # What read queue length does an incoming req see
system.mem_ctrls.rdQLenPdf::26                      0                       # What read queue length does an incoming req see
system.mem_ctrls.rdQLenPdf::27                      0                       # What read queue length does an incoming req see
system.mem_ctrls.rdQLenPdf::28                      0                       # What read queue length does an incoming req see
system.mem_ctrls.rdQLenPdf::29                      0                       # What read queue length does an incoming req see
system.mem_ctrls.rdQLenPdf::30                      0                       # What read queue length does an incoming req see
system.mem_ctrls.rdQLenPdf::31                      0                       # What read queue length does an incoming req see
system.mem_ctrls.wrQLenPdf::0                       1                       # What write queue length does an incoming req see
system.mem_ctrls.wrQLenPdf::1                       1                       # What write queue length does an incoming req see
system.mem_ctrls.wrQLenPdf::2                       1                       # What write queue length does an incoming req see
system.mem_ctrls.wrQLenPdf::3                       1                       # What write queue length does an incoming req see
system.mem_ctrls.wrQLenPdf::4                       1                       # What write queue length does an incoming req see
system.mem_ctrls.wrQLenPdf::5                       1                       # What write queue length does an incoming req see
system.mem_ctrls.wrQLenPdf::6                       1                       # What write queue length does an incoming req see
system.mem_ctrls.wrQLenPdf::7                       1                       # What write queue length does an incoming req see
system.mem_ctrls.wrQLenPdf::8                       1                       # What write queue length does an incoming req see
system.mem_ctrls.wrQLenPdf::9                       1                       # What write queue length does an incoming req see
system.mem_ctrls.wrQLenPdf::10                      1                       # What write queue length does an incoming req see
system.mem_ctrls.wrQLenPdf::11                      1                       # What write queue length does an incoming req see
system.mem_ctrls.wrQLenPdf::12                      1                       # What write queue length does an incoming req see
system.mem_ctrls.wrQLenPdf::13                      1                       # What write queue length does an incoming req see
system.mem_ctrls.wrQLenPdf::14                      1                       # What write queue length does an incoming req see
system.mem_ctrls.wrQLenPdf::15                   3820                       # What write queue length does an incoming req see
system.mem_ctrls.wrQLenPdf::16                   4290                       # What write queue length does an incoming req see
system.mem_ctrls.wrQLenPdf::17                  18990                       # What write queue length does an incoming req see
system.mem_ctrls.wrQLenPdf::18                  23240                       # What write queue length does an incoming req see
system.mem_ctrls.wrQLenPdf::19                  26654                       # What write queue length does an incoming req see
system.mem_ctrls.wrQLenPdf::20                  30011                       # What write queue length does an incoming req see
system.mem_ctrls.wrQLenPdf::21                  32391                       # What write queue length does an incoming req see
system.mem_ctrls.wrQLenPdf::22                  33835                       # What write queue length does an incoming req see
system.mem_ctrls.wrQLenPdf::23                  34397                       # What write queue length does an incoming req see
system.mem_ctrls.wrQLenPdf::24                  34905                       # What write queue length does an incoming req see
system.mem_ctrls.wrQLenPdf::25                  35308                       # What write queue length does an incoming req see
system.mem_ctrls.wrQLenPdf::26                  35144                       # What write queue length does an incoming req see
system.mem_ctrls.wrQLenPdf::27                  34334                       # What write queue length does an incoming req see
system.mem_ctrls.wrQLenPdf::28                  34892                       # What write queue length does an incoming req see
system.mem_ctrls.wrQLenPdf::29                  33299                       # What write queue length does an incoming req see
system.mem_ctrls.wrQLenPdf::30                  33150                       # What write queue length does an incoming req see
system.mem_ctrls.wrQLenPdf::31                  34260                       # What write queue length does an incoming req see
system.mem_ctrls.wrQLenPdf::32                  33083                       # What write queue length does an incoming req see
system.mem_ctrls.wrQLenPdf::33                   1437                       # What write queue length does an incoming req see
system.mem_ctrls.wrQLenPdf::34                    945                       # What write queue length does an incoming req see
system.mem_ctrls.wrQLenPdf::35                    824                       # What write queue length does an incoming req see
system.mem_ctrls.wrQLenPdf::36                    688                       # What write queue length does an incoming req see
system.mem_ctrls.wrQLenPdf::37                    599                       # What write queue length does an incoming req see
system.mem_ctrls.wrQLenPdf::38                    503                       # What write queue length does an incoming req see
system.mem_ctrls.wrQLenPdf::39                    455                       # What write queue length does an incoming req see
system.mem_ctrls.wrQLenPdf::40                    443                       # What write queue length does an incoming req see
system.mem_ctrls.wrQLenPdf::41                    421                       # What write queue length does an incoming req see
system.mem_ctrls.wrQLenPdf::42                    367                       # What write queue length does an incoming req see
system.mem_ctrls.wrQLenPdf::43                    351                       # What write queue length does an incoming req see
system.mem_ctrls.wrQLenPdf::44                    299                       # What write queue length does an incoming req see
system.mem_ctrls.wrQLenPdf::45                    297                       # What write queue length does an incoming req see
system.mem_ctrls.wrQLenPdf::46                    266                       # What write queue length does an incoming req see
system.mem_ctrls.wrQLenPdf::47                    238                       # What write queue length does an incoming req see
system.mem_ctrls.wrQLenPdf::48                    227                       # What write queue length does an incoming req see
system.mem_ctrls.wrQLenPdf::49                    240                       # What write queue length does an incoming req see
system.mem_ctrls.wrQLenPdf::50                    232                       # What write queue length does an incoming req see
system.mem_ctrls.wrQLenPdf::51                    192                       # What write queue length does an incoming req see
system.mem_ctrls.wrQLenPdf::52                    189                       # What write queue length does an incoming req see
system.mem_ctrls.wrQLenPdf::53                    194                       # What write queue length does an incoming req see
system.mem_ctrls.wrQLenPdf::54                    215                       # What write queue length does an incoming req see
system.mem_ctrls.wrQLenPdf::55                    202                       # What write queue length does an incoming req see
system.mem_ctrls.wrQLenPdf::56                    233                       # What write queue length does an incoming req see
system.mem_ctrls.wrQLenPdf::57                    225                       # What write queue length does an incoming req see
system.mem_ctrls.wrQLenPdf::58                    207                       # What write queue length does an incoming req see
system.mem_ctrls.wrQLenPdf::59                    168                       # What write queue length does an incoming req see
system.mem_ctrls.wrQLenPdf::60                    158                       # What write queue length does an incoming req see
system.mem_ctrls.wrQLenPdf::61                    121                       # What write queue length does an incoming req see
system.mem_ctrls.wrQLenPdf::62                     91                       # What write queue length does an incoming req see
system.mem_ctrls.wrQLenPdf::63                     78                       # What write queue length does an incoming req see
system.mem_ctrls.bytesPerActivate::samples      1057625                       # Bytes accessed per row activation
system.mem_ctrls.bytesPerActivate::mean    288.152281                       # Bytes accessed per row activation
system.mem_ctrls.bytesPerActivate::gmean   167.506384                       # Bytes accessed per row activation
system.mem_ctrls.bytesPerActivate::stdev   323.083664                       # Bytes accessed per row activation
system.mem_ctrls.bytesPerActivate::0-127       426638     40.34%     40.34% # Bytes accessed per row activation
system.mem_ctrls.bytesPerActivate::128-255       274319     25.94%     66.28% # Bytes accessed per row activation
system.mem_ctrls.bytesPerActivate::256-383        84522      7.99%     74.27% # Bytes accessed per row activation
system.mem_ctrls.bytesPerActivate::384-511        54925      5.19%     79.46% # Bytes accessed per row activation
system.mem_ctrls.bytesPerActivate::512-639        38739      3.66%     83.12% # Bytes accessed per row activation
system.mem_ctrls.bytesPerActivate::640-767        23464      2.22%     85.34% # Bytes accessed per row activation
system.mem_ctrls.bytesPerActivate::768-895        19367      1.83%     87.17% # Bytes accessed per row activation
system.mem_ctrls.bytesPerActivate::896-1023        15243      1.44%     88.62% # Bytes accessed per row activation
system.mem_ctrls.bytesPerActivate::1024-1151       120408     11.38%    100.00% # Bytes accessed per row activation
system.mem_ctrls.bytesPerActivate::total      1057625                       # Bytes accessed per row activation
system.mem_ctrls.rdPerTurnAround::samples        31932                       # Reads before turning the bus around for writes
system.mem_ctrls.rdPerTurnAround::mean     132.617030                       # Reads before turning the bus around for writes
system.mem_ctrls.rdPerTurnAround::stdev   5776.689379                       # Reads before turning the bus around for writes
system.mem_ctrls.rdPerTurnAround::0-32767        31931    100.00%    100.00% # Reads before turning the bus around for writes
system.mem_ctrls.rdPerTurnAround::1.01581e+06-1.04858e+06            1      0.00%    100.00% # Reads before turning the bus around for writes
system.mem_ctrls.rdPerTurnAround::total         31932                       # Reads before turning the bus around for writes
system.mem_ctrls.wrPerTurnAround::samples        31932                       # Writes before turning the bus around for reads
system.mem_ctrls.wrPerTurnAround::mean      16.507140                       # Writes before turning the bus around for reads
system.mem_ctrls.wrPerTurnAround::gmean     16.362519                       # Writes before turning the bus around for reads
system.mem_ctrls.wrPerTurnAround::stdev      4.061996                       # Writes before turning the bus around for reads
system.mem_ctrls.wrPerTurnAround::16-19         31618     99.02%     99.02% # Writes before turning the bus around for reads
system.mem_ctrls.wrPerTurnAround::20-23           128      0.40%     99.42% # Writes before turning the bus around for reads
system.mem_ctrls.wrPerTurnAround::24-27            21      0.07%     99.48% # Writes before turning the bus around for reads
system.mem_ctrls.wrPerTurnAround::28-31            61      0.19%     99.67% # Writes before turning the bus around for reads
system.mem_ctrls.wrPerTurnAround::32-35            14      0.04%     99.72% # Writes before turning the bus around for reads
system.mem_ctrls.wrPerTurnAround::36-39             9      0.03%     99.75% # Writes before turning the bus around for reads
system.mem_ctrls.wrPerTurnAround::40-43             2      0.01%     99.75% # Writes before turning the bus around for reads
system.mem_ctrls.wrPerTurnAround::44-47             4      0.01%     99.77% # Writes before turning the bus around for reads
system.mem_ctrls.wrPerTurnAround::48-51             5      0.02%     99.78% # Writes before turning the bus around for reads
system.mem_ctrls.wrPerTurnAround::56-59             2      0.01%     99.79% # Writes before turning the bus around for reads
system.mem_ctrls.wrPerTurnAround::60-63             1      0.00%     99.79% # Writes before turning the bus around for reads
system.mem_ctrls.wrPerTurnAround::64-67             6      0.02%     99.81% # Writes before turning the bus around for reads
system.mem_ctrls.wrPerTurnAround::68-71             1      0.00%     99.81% # Writes before turning the bus around for reads
system.mem_ctrls.wrPerTurnAround::72-75             1      0.00%     99.82% # Writes before turning the bus around for reads
system.mem_ctrls.wrPerTurnAround::80-83             5      0.02%     99.83% # Writes before turning the bus around for reads
system.mem_ctrls.wrPerTurnAround::84-87             2      0.01%     99.84% # Writes before turning the bus around for reads
system.mem_ctrls.wrPerTurnAround::92-95             2      0.01%     99.84% # Writes before turning the bus around for reads
system.mem_ctrls.wrPerTurnAround::96-99            44      0.14%     99.98% # Writes before turning the bus around for reads
system.mem_ctrls.wrPerTurnAround::112-115            1      0.00%     99.98% # Writes before turning the bus around for reads
system.mem_ctrls.wrPerTurnAround::140-143            1      0.00%     99.99% # Writes before turning the bus around for reads
system.mem_ctrls.wrPerTurnAround::144-147            1      0.00%     99.99% # Writes before turning the bus around for reads
system.mem_ctrls.wrPerTurnAround::148-151            1      0.00%     99.99% # Writes before turning the bus around for reads
system.mem_ctrls.wrPerTurnAround::160-163            1      0.00%    100.00% # Writes before turning the bus around for reads
system.mem_ctrls.wrPerTurnAround::224-227            1      0.00%    100.00% # Writes before turning the bus around for reads
system.mem_ctrls.wrPerTurnAround::total         31932                       # Writes before turning the bus around for reads
system.mem_ctrls.totQLat                  41125565487                       # Total ticks spent queuing
system.mem_ctrls.totMemAccLat            120526771737                       # Total ticks spent from burst creation until serviced by the DRAM
system.mem_ctrls.totBusLat                21173655000                       # Total ticks spent in databus transfers
system.mem_ctrls.avgQLat                      9711.49                       # Average queueing delay per DRAM burst
system.mem_ctrls.avgBusLat                    5000.00                       # Average bus latency per DRAM burst
system.mem_ctrls.avgMemAccLat                28461.49                       # Average memory access latency per DRAM burst
system.mem_ctrls.avgRdBW                       108.79                       # Average DRAM read bandwidth in MiByte/s
system.mem_ctrls.avgWrBW                        13.54                       # Average achieved write bandwidth in MiByte/s
system.mem_ctrls.avgRdBWSys                    109.68                       # Average system read bandwidth in MiByte/s
system.mem_ctrls.avgWrBWSys                     13.68                       # Average system write bandwidth in MiByte/s
system.mem_ctrls.peakBW                      12800.00                       # Theoretical peak bandwidth in MiByte/s
system.mem_ctrls.busUtil                         0.96                       # Data bus utilization in percentage
system.mem_ctrls.busUtilRead                     0.85                       # Data bus utilization in percentage for reads
system.mem_ctrls.busUtilWrite                    0.11                       # Data bus utilization in percentage for writes
system.mem_ctrls.avgRdQLen                       1.04                       # Average read queue length when enqueuing
system.mem_ctrls.avgWrQLen                      26.10                       # Average write queue length when enqueuing
system.mem_ctrls.readRowHits                  3337071                       # Number of row buffer hits during reads
system.mem_ctrls.writeRowHits                  367139                       # Number of row buffer hits during writes
system.mem_ctrls.readRowHitRate                 78.80                       # Row buffer hit rate for reads
system.mem_ctrls.writeRowHitRate                69.65                       # Row buffer hit rate for writes
system.mem_ctrls.avgGap                     518781.18                       # Average gap between requests
system.mem_ctrls.pageHitRate                    77.79                       # Row buffer hit rate, read and write combined
system.mem_ctrls.memoryStateTime::IDLE   2167393247966                       # Time in different power states
system.mem_ctrls.memoryStateTime::REF     83185960000                       # Time in different power states
system.mem_ctrls.memoryStateTime::PRE_PDN            0                       # Time in different power states
system.mem_ctrls.memoryStateTime::ACT    240600666402                       # Time in different power states
system.mem_ctrls.memoryStateTime::ACT_PDN            0                       # Time in different power states
system.mem_ctrls.actEnergy::0              3073737240                       # Energy for activate commands per rank (pJ)
system.mem_ctrls.actEnergy::1              4921907760                       # Energy for activate commands per rank (pJ)
system.mem_ctrls.preEnergy::0              1677138375                       # Energy for precharge commands per rank (pJ)
system.mem_ctrls.preEnergy::1              2685564750                       # Energy for precharge commands per rank (pJ)
system.mem_ctrls.readEnergy::0            14762677800                       # Energy for read commands per rank (pJ)
system.mem_ctrls.readEnergy::1            18268192800                       # Energy for read commands per rank (pJ)
system.mem_ctrls.writeEnergy::0            1440659520                       # Energy for write commands per rank (pJ)
system.mem_ctrls.writeEnergy::1            1974961440                       # Energy for write commands per rank (pJ)
system.mem_ctrls.refreshEnergy::0        162711737760                       # Energy for refresh commands per rank (pJ)
system.mem_ctrls.refreshEnergy::1        162711737760                       # Energy for refresh commands per rank (pJ)
system.mem_ctrls.actBackEnergy::0        189539436105                       # Energy for active background per rank (pJ)
system.mem_ctrls.actBackEnergy::1        196262358390                       # Energy for active background per rank (pJ)
system.mem_ctrls.preBackEnergy::0        1328445253500                       # Energy for precharge background per rank (pJ)
system.mem_ctrls.preBackEnergy::1        1322547953250                       # Energy for precharge background per rank (pJ)
system.mem_ctrls.totalEnergy::0          1701650640300                       # Total energy per rank (pJ)
system.mem_ctrls.totalEnergy::1          1709372676150                       # Total energy per rank (pJ)
system.mem_ctrls.averagePower::0           683.070166                       # Core power per rank (mW)
system.mem_ctrls.averagePower::1           686.169916                       # Core power per rank (mW)
system.membus.trans_dist::ReadReq             3950207                       # Transaction distribution
system.membus.trans_dist::ReadResp            3949893                       # Transaction distribution
system.membus.trans_dist::WriteReq              10506                       # Transaction distribution
system.membus.trans_dist::WriteResp             10506                       # Transaction distribution
system.membus.trans_dist::Writeback            488342                       # Transaction distribution
system.membus.trans_dist::WriteInvalidateReq        44256                       # Transaction distribution
system.membus.trans_dist::WriteInvalidateResp        44256                       # Transaction distribution
system.membus.trans_dist::UpgradeReq              212                       # Transaction distribution
system.membus.trans_dist::SCUpgradeReq             20                       # Transaction distribution
system.membus.trans_dist::UpgradeResp             232                       # Transaction distribution
system.membus.trans_dist::ReadExReq            327451                       # Transaction distribution
system.membus.trans_dist::ReadExResp           327451                       # Transaction distribution
system.membus.trans_dist::BadAddressError          314                       # Transaction distribution
system.membus.pkt_count_system.iocache.mem_side::system.mem_ctrls.port        88807                       # Packet count per connected master and slave (bytes)
system.membus.pkt_count_system.iocache.mem_side::total        88807                       # Packet count per connected master and slave (bytes)
system.membus.pkt_count_system.cpu.icache.mem_side::system.mem_ctrls.port      2841830                       # Packet count per connected master and slave (bytes)
system.membus.pkt_count_system.cpu.icache.mem_side::total      2841830                       # Packet count per connected master and slave (bytes)
system.membus.pkt_count_system.cpu.dcache.mem_side::system.bridge.slave        36066                       # Packet count per connected master and slave (bytes)
system.membus.pkt_count_system.cpu.dcache.mem_side::system.mem_ctrls.port      6185886                       # Packet count per connected master and slave (bytes)
system.membus.pkt_count_system.cpu.dcache.mem_side::system.membus.badaddr_responder.pio          628                       # Packet count per connected master and slave (bytes)
system.membus.pkt_count_system.cpu.dcache.mem_side::total      6222580                       # Packet count per connected master and slave (bytes)
system.membus.pkt_count::total                9153217                       # Packet count per connected master and slave (bytes)
system.membus.pkt_size_system.iocache.mem_side::system.mem_ctrls.port      2837824                       # Cumulative packet size per connected master and slave (bytes)
system.membus.pkt_size_system.iocache.mem_side::total      2837824                       # Cumulative packet size per connected master and slave (bytes)
system.membus.pkt_size_system.cpu.icache.mem_side::system.mem_ctrls.port     90928832                       # Cumulative packet size per connected master and slave (bytes)
system.membus.pkt_size_system.cpu.icache.mem_side::total     90928832                       # Cumulative packet size per connected master and slave (bytes)
system.membus.pkt_size_system.cpu.dcache.mem_side::system.bridge.slave        47007                       # Cumulative packet size per connected master and slave (bytes)
system.membus.pkt_size_system.cpu.dcache.mem_side::system.mem_ctrls.port    213560448                       # Cumulative packet size per connected master and slave (bytes)
system.membus.pkt_size_system.cpu.dcache.mem_side::total    213607455                       # Cumulative packet size per connected master and slave (bytes)
system.membus.pkt_size::total               307374111                       # Cumulative packet size per connected master and slave (bytes)
system.membus.snoops                              429                       # Total snoops (count)
system.membus.snoop_fanout::samples           4802991                       # Request fanout histogram
system.membus.snoop_fanout::mean                    2                       # Request fanout histogram
system.membus.snoop_fanout::stdev                   0                       # Request fanout histogram
system.membus.snoop_fanout::underflows              0      0.00%      0.00% # Request fanout histogram
system.membus.snoop_fanout::0                       0      0.00%      0.00% # Request fanout histogram
system.membus.snoop_fanout::1                       0      0.00%      0.00% # Request fanout histogram
system.membus.snoop_fanout::2                 4802991    100.00%    100.00% # Request fanout histogram
system.membus.snoop_fanout::3                       0      0.00%    100.00% # Request fanout histogram
system.membus.snoop_fanout::overflows               0      0.00%    100.00% # Request fanout histogram
system.membus.snoop_fanout::min_value               2                       # Request fanout histogram
system.membus.snoop_fanout::max_value               2                       # Request fanout histogram
system.membus.snoop_fanout::total             4802991                       # Request fanout histogram
system.membus.reqLayer0.occupancy            36968432                       # Layer occupancy (ticks)
system.membus.reqLayer0.utilization               0.0                       # Layer utilization (%)
system.membus.reqLayer1.occupancy         11281062019                       # Layer occupancy (ticks)
system.membus.reqLayer1.utilization               0.5                       # Layer utilization (%)
system.membus.reqLayer2.occupancy              467104                       # Layer occupancy (ticks)
system.membus.reqLayer2.utilization               0.0                       # Layer utilization (%)
system.membus.respLayer1.occupancy           46388952                       # Layer occupancy (ticks)
system.membus.respLayer1.utilization              0.0                       # Layer utilization (%)
system.membus.respLayer2.occupancy        13476353720                       # Layer occupancy (ticks)
system.membus.respLayer2.utilization              0.5                       # Layer utilization (%)
system.membus.respLayer3.occupancy        26669826021                       # Layer occupancy (ticks)
system.membus.respLayer3.utilization              1.1                       # Layer utilization (%)
system.iocache.tags.replacements                44450                       # number of replacements
system.iocache.tags.tagsinuse                0.282661                       # Cycle average of tags in use
system.iocache.tags.total_refs                      0                       # Total number of references to valid blocks.
system.iocache.tags.sampled_refs                44450                       # Sample count of references to valid blocks.
system.iocache.tags.avg_refs                        0                       # Average number of references to valid blocks.
system.iocache.tags.warmup_cycle         2447170242000                       # Cycle when the warmup percentage was hit.
system.iocache.tags.occ_blocks::tsunami.ide     0.282661                       # Average occupied blocks per requestor
system.iocache.tags.occ_percent::tsunami.ide     0.017666                       # Average percentage of cache occupancy
system.iocache.tags.occ_percent::total       0.017666                       # Average percentage of cache occupancy
system.iocache.tags.occ_task_id_blocks::1023           16                       # Occupied blocks per task id
system.iocache.tags.age_task_id_blocks_1023::3           16                       # Occupied blocks per task id
system.iocache.tags.occ_task_id_percent::1023            1                       # Percentage of cache occupancy per task id
system.iocache.tags.tag_accesses               400194                       # Number of tag accesses
system.iocache.tags.data_accesses              400194                       # Number of data accesses
system.iocache.WriteInvalidateReq_hits::tsunami.ide        44256                       # number of WriteInvalidateReq hits
system.iocache.WriteInvalidateReq_hits::total        44256                       # number of WriteInvalidateReq hits
system.iocache.ReadReq_misses::tsunami.ide          210                       # number of ReadReq misses
system.iocache.ReadReq_misses::total              210                       # number of ReadReq misses
system.iocache.demand_misses::tsunami.ide          210                       # number of demand (read+write) misses
system.iocache.demand_misses::total               210                       # number of demand (read+write) misses
system.iocache.overall_misses::tsunami.ide          210                       # number of overall misses
system.iocache.overall_misses::total              210                       # number of overall misses
system.iocache.ReadReq_miss_latency::tsunami.ide     32582386                       # number of ReadReq miss cycles
system.iocache.ReadReq_miss_latency::total     32582386                       # number of ReadReq miss cycles
system.iocache.demand_miss_latency::tsunami.ide     32582386                       # number of demand (read+write) miss cycles
system.iocache.demand_miss_latency::total     32582386                       # number of demand (read+write) miss cycles
system.iocache.overall_miss_latency::tsunami.ide     32582386                       # number of overall miss cycles
system.iocache.overall_miss_latency::total     32582386                       # number of overall miss cycles
system.iocache.ReadReq_accesses::tsunami.ide          210                       # number of ReadReq accesses(hits+misses)
system.iocache.ReadReq_accesses::total            210                       # number of ReadReq accesses(hits+misses)
system.iocache.WriteInvalidateReq_accesses::tsunami.ide        44256                       # number of WriteInvalidateReq accesses(hits+misses)
system.iocache.WriteInvalidateReq_accesses::total        44256                       # number of WriteInvalidateReq accesses(hits+misses)
system.iocache.demand_accesses::tsunami.ide          210                       # number of demand (read+write) accesses
system.iocache.demand_accesses::total             210                       # number of demand (read+write) accesses
system.iocache.overall_accesses::tsunami.ide          210                       # number of overall (read+write) accesses
system.iocache.overall_accesses::total            210                       # number of overall (read+write) accesses
system.iocache.ReadReq_miss_rate::tsunami.ide            1                       # miss rate for ReadReq accesses
system.iocache.ReadReq_miss_rate::total             1                       # miss rate for ReadReq accesses
system.iocache.demand_miss_rate::tsunami.ide            1                       # miss rate for demand accesses
system.iocache.demand_miss_rate::total              1                       # miss rate for demand accesses
system.iocache.overall_miss_rate::tsunami.ide            1                       # miss rate for overall accesses
system.iocache.overall_miss_rate::total             1                       # miss rate for overall accesses
system.iocache.ReadReq_avg_miss_latency::tsunami.ide 155154.219048                       # average ReadReq miss latency
system.iocache.ReadReq_avg_miss_latency::total 155154.219048                       # average ReadReq miss latency
system.iocache.demand_avg_miss_latency::tsunami.ide 155154.219048                       # average overall miss latency
system.iocache.demand_avg_miss_latency::total 155154.219048                       # average overall miss latency
system.iocache.overall_avg_miss_latency::tsunami.ide 155154.219048                       # average overall miss latency
system.iocache.overall_avg_miss_latency::total 155154.219048                       # average overall miss latency
system.iocache.blocked_cycles::no_mshrs           446                       # number of cycles access was blocked
system.iocache.blocked_cycles::no_targets            0                       # number of cycles access was blocked
system.iocache.blocked::no_mshrs                   45                       # number of cycles access was blocked
system.iocache.blocked::no_targets                  0                       # number of cycles access was blocked
system.iocache.avg_blocked_cycles::no_mshrs     9.911111                       # average number of cycles each access was blocked
system.iocache.avg_blocked_cycles::no_targets          nan                       # average number of cycles each access was blocked
system.iocache.fast_writes                      44256                       # number of fast writes performed
system.iocache.cache_copies                         0                       # number of cache copies performed
system.iocache.ReadReq_mshr_misses::tsunami.ide          210                       # number of ReadReq MSHR misses
system.iocache.ReadReq_mshr_misses::total          210                       # number of ReadReq MSHR misses
system.iocache.WriteInvalidateReq_mshr_misses::tsunami.ide        44256                       # number of WriteInvalidateReq MSHR misses
system.iocache.WriteInvalidateReq_mshr_misses::total        44256                       # number of WriteInvalidateReq MSHR misses
system.iocache.demand_mshr_misses::tsunami.ide          210                       # number of demand (read+write) MSHR misses
system.iocache.demand_mshr_misses::total          210                       # number of demand (read+write) MSHR misses
system.iocache.overall_mshr_misses::tsunami.ide          210                       # number of overall MSHR misses
system.iocache.overall_mshr_misses::total          210                       # number of overall MSHR misses
system.iocache.ReadReq_mshr_miss_latency::tsunami.ide     21523652                       # number of ReadReq MSHR miss cycles
system.iocache.ReadReq_mshr_miss_latency::total     21523652                       # number of ReadReq MSHR miss cycles
system.iocache.WriteInvalidateReq_mshr_miss_latency::tsunami.ide   2997173147                       # number of WriteInvalidateReq MSHR miss cycles
system.iocache.WriteInvalidateReq_mshr_miss_latency::total   2997173147                       # number of WriteInvalidateReq MSHR miss cycles
system.iocache.demand_mshr_miss_latency::tsunami.ide     21523652                       # number of demand (read+write) MSHR miss cycles
system.iocache.demand_mshr_miss_latency::total     21523652                       # number of demand (read+write) MSHR miss cycles
system.iocache.overall_mshr_miss_latency::tsunami.ide     21523652                       # number of overall MSHR miss cycles
system.iocache.overall_mshr_miss_latency::total     21523652                       # number of overall MSHR miss cycles
system.iocache.ReadReq_mshr_miss_rate::tsunami.ide            1                       # mshr miss rate for ReadReq accesses
system.iocache.ReadReq_mshr_miss_rate::total            1                       # mshr miss rate for ReadReq accesses
system.iocache.WriteInvalidateReq_mshr_miss_rate::tsunami.ide            1                       # mshr miss rate for WriteInvalidateReq accesses
system.iocache.WriteInvalidateReq_mshr_miss_rate::total            1                       # mshr miss rate for WriteInvalidateReq accesses
system.iocache.demand_mshr_miss_rate::tsunami.ide            1                       # mshr miss rate for demand accesses
system.iocache.demand_mshr_miss_rate::total            1                       # mshr miss rate for demand accesses
system.iocache.overall_mshr_miss_rate::tsunami.ide            1                       # mshr miss rate for overall accesses
system.iocache.overall_mshr_miss_rate::total            1                       # mshr miss rate for overall accesses
system.iocache.ReadReq_avg_mshr_miss_latency::tsunami.ide 102493.580952                       # average ReadReq mshr miss latency
system.iocache.ReadReq_avg_mshr_miss_latency::total 102493.580952                       # average ReadReq mshr miss latency
system.iocache.WriteInvalidateReq_avg_mshr_miss_latency::tsunami.ide 67723.543633                       # average WriteInvalidateReq mshr miss latency
system.iocache.WriteInvalidateReq_avg_mshr_miss_latency::total 67723.543633                       # average WriteInvalidateReq mshr miss latency
system.iocache.demand_avg_mshr_miss_latency::tsunami.ide 102493.580952                       # average overall mshr miss latency
system.iocache.demand_avg_mshr_miss_latency::total 102493.580952                       # average overall mshr miss latency
system.iocache.overall_avg_mshr_miss_latency::tsunami.ide 102493.580952                       # average overall mshr miss latency
system.iocache.overall_avg_mshr_miss_latency::total 102493.580952                       # average overall mshr miss latency
system.iocache.no_allocate_misses                   0                       # Number of misses that were no-allocate
system.disk0.dma_read_full_pages                    0                       # Number of full page size DMA reads (not PRD).
system.disk0.dma_read_bytes                      4096                       # Number of bytes transfered via DMA reads (not PRD).
system.disk0.dma_read_txs                           1                       # Number of DMA read transactions (not PRD).
system.disk0.dma_write_full_pages                 326                       # Number of full page size DMA writes.
system.disk0.dma_write_bytes                  2824192                       # Number of bytes transfered via DMA writes.
system.disk0.dma_write_txs                        365                       # Number of DMA write transactions.
system.disk2.dma_read_full_pages                    0                       # Number of full page size DMA reads (not PRD).
system.disk2.dma_read_bytes                         0                       # Number of bytes transfered via DMA reads (not PRD).
system.disk2.dma_read_txs                           0                       # Number of DMA read transactions (not PRD).
system.disk2.dma_write_full_pages                   1                       # Number of full page size DMA writes.
system.disk2.dma_write_bytes                     8192                       # Number of bytes transfered via DMA writes.
system.disk2.dma_write_txs                          1                       # Number of DMA write transactions.
system.cpu.branchPred.lookups                26958881                       # Number of BP lookups
system.cpu.branchPred.condPredicted          22815975                       # Number of conditional branches predicted
system.cpu.branchPred.condIncorrect            605671                       # Number of conditional branches incorrect
system.cpu.branchPred.BTBLookups             18211357                       # Number of BTB lookups
system.cpu.branchPred.BTBHits                10202857                       # Number of BTB hits
system.cpu.branchPred.BTBCorrect                    0                       # Number of correct BTB predictions (this stat may not work properly.
system.cpu.branchPred.BTBHitPct             56.024694                       # BTB Hit Percentage
system.cpu.branchPred.usedRAS                 1702632                       # Number of times the RAS was used to get a target.
system.cpu.branchPred.RASInCorrect              38570                       # Number of incorrect RAS predictions.
system.cpu_voltage_domain.voltage                   1                       # Voltage in Volts
system.cpu_clk_domain.clock                      1408                       # Clock period in ticks
system.cpu.dtb.fetch_hits                           0                       # ITB hits
system.cpu.dtb.fetch_misses                         0                       # ITB misses
system.cpu.dtb.fetch_acv                            0                       # ITB acv
system.cpu.dtb.fetch_accesses                       0                       # ITB accesses
system.cpu.dtb.read_hits                     17615655                       # DTB read hits
system.cpu.dtb.read_misses                      80564                       # DTB read misses
system.cpu.dtb.read_acv                           210                       # DTB read access violations
system.cpu.dtb.read_accesses                  1199694                       # DTB read accesses
system.cpu.dtb.write_hits                     8682918                       # DTB write hits
system.cpu.dtb.write_misses                     12746                       # DTB write misses
system.cpu.dtb.write_acv                          524                       # DTB write access violations
system.cpu.dtb.write_accesses                  418419                       # DTB write accesses
system.cpu.dtb.data_hits                     26298573                       # DTB hits
system.cpu.dtb.data_misses                      93310                       # DTB misses
system.cpu.dtb.data_acv                           734                       # DTB access violations
system.cpu.dtb.data_accesses                  1618113                       # DTB accesses
system.cpu.itb.fetch_hits                     2149354                       # ITB hits
system.cpu.itb.fetch_misses                     27501                       # ITB misses
system.cpu.itb.fetch_acv                          657                       # ITB acv
system.cpu.itb.fetch_accesses                 2176855                       # ITB accesses
system.cpu.itb.read_hits                            0                       # DTB read hits
system.cpu.itb.read_misses                          0                       # DTB read misses
system.cpu.itb.read_acv                             0                       # DTB read access violations
system.cpu.itb.read_accesses                        0                       # DTB read accesses
system.cpu.itb.write_hits                           0                       # DTB write hits
system.cpu.itb.write_misses                         0                       # DTB write misses
system.cpu.itb.write_acv                            0                       # DTB write access violations
system.cpu.itb.write_accesses                       0                       # DTB write accesses
system.cpu.itb.data_hits                            0                       # DTB hits
system.cpu.itb.data_misses                          0                       # DTB misses
system.cpu.itb.data_acv                             0                       # DTB access violations
system.cpu.itb.data_accesses                        0                       # DTB accesses
system.cpu.numCycles                        170040969                       # number of cpu cycles simulated
system.cpu.numWorkItemsStarted                      0                       # number of work items this cpu started
system.cpu.numWorkItemsCompleted                    0                       # number of work items this cpu completed
system.cpu.fetch.icacheStallCycles           47681808                       # Number of cycles fetch is stalled on an Icache miss
system.cpu.fetch.Insts                      119929961                       # Number of instructions fetch has processed
system.cpu.fetch.Branches                    26958881                       # Number of branches that fetch encountered
system.cpu.fetch.predictedBranches           11905489                       # Number of branches that fetch has predicted taken
system.cpu.fetch.Cycles                     101539705                       # Number of cycles fetch has run and was not squashing or blocked
system.cpu.fetch.SquashCycles                 1780784                       # Number of cycles fetch has spent squashing
system.cpu.fetch.TlbCycles                       1271                       # Number of cycles fetch has spent waiting for tlb
system.cpu.fetch.MiscStallCycles                48453                       # Number of cycles fetch has spent waiting on interrupts, or bad addresses, or out of MSHRs
system.cpu.fetch.PendingTrapStallCycles        958276                       # Number of stall cycles due to pending traps
system.cpu.fetch.PendingQuiesceStallCycles       423706                       # Number of stall cycles due to pending quiesce instructions
system.cpu.fetch.IcacheWaitRetryStallCycles          198                       # Number of stall cycles due to full MSHR
system.cpu.fetch.CacheLines                  15658947                       # Number of cache lines fetched
system.cpu.fetch.IcacheSquashes                430498                       # Number of outstanding Icache misses that were squashed
system.cpu.fetch.ItlbSquashes                      12                       # Number of outstanding ITLB misses that were squashed
system.cpu.fetch.rateDist::samples          151543822                       # Number of instructions fetched each cycle (Total)
system.cpu.fetch.rateDist::mean              0.791388                       # Number of instructions fetched each cycle (Total)
system.cpu.fetch.rateDist::stdev             2.065708                       # Number of instructions fetched each cycle (Total)
system.cpu.fetch.rateDist::underflows               0      0.00%      0.00% # Number of instructions fetched each cycle (Total)
system.cpu.fetch.rateDist::0                126716633     83.62%     83.62% # Number of instructions fetched each cycle (Total)
system.cpu.fetch.rateDist::1                  2773046      1.83%     85.45% # Number of instructions fetched each cycle (Total)
system.cpu.fetch.rateDist::2                  3503800      2.31%     87.76% # Number of instructions fetched each cycle (Total)
system.cpu.fetch.rateDist::3                  2045098      1.35%     89.11% # Number of instructions fetched each cycle (Total)
system.cpu.fetch.rateDist::4                  4967366      3.28%     92.39% # Number of instructions fetched each cycle (Total)
system.cpu.fetch.rateDist::5                  1182202      0.78%     93.17% # Number of instructions fetched each cycle (Total)
system.cpu.fetch.rateDist::6                  1879570      1.24%     94.41% # Number of instructions fetched each cycle (Total)
system.cpu.fetch.rateDist::7                   852729      0.56%     94.97% # Number of instructions fetched each cycle (Total)
system.cpu.fetch.rateDist::8                  7623378      5.03%    100.00% # Number of instructions fetched each cycle (Total)
system.cpu.fetch.rateDist::overflows                0      0.00%    100.00% # Number of instructions fetched each cycle (Total)
system.cpu.fetch.rateDist::min_value                0                       # Number of instructions fetched each cycle (Total)
system.cpu.fetch.rateDist::max_value                8                       # Number of instructions fetched each cycle (Total)
system.cpu.fetch.rateDist::total            151543822                       # Number of instructions fetched each cycle (Total)
system.cpu.fetch.branchRate                  0.158543                       # Number of branch fetches per cycle
system.cpu.fetch.rate                        0.705300                       # Number of inst fetches per cycle
system.cpu.decode.IdleCycles                 37986320                       # Number of cycles decode is idle
system.cpu.decode.BlockedCycles              94309167                       # Number of cycles decode is blocked
system.cpu.decode.RunCycles                  14583362                       # Number of cycles decode is running
system.cpu.decode.UnblockCycles               3850446                       # Number of cycles decode is unblocking
system.cpu.decode.SquashCycles                 814526                       # Number of cycles decode is squashing
system.cpu.decode.BranchResolved               920311                       # Number of times decode resolved a branch
system.cpu.decode.BranchMispred                 76561                       # Number of times decode detected a branch misprediction
system.cpu.decode.DecodedInsts              107405080                       # Number of instructions handled by decode
system.cpu.decode.SquashedInsts                202504                       # Number of squashed instructions handled by decode
system.cpu.rename.SquashCycles                 814526                       # Number of cycles rename is squashing
system.cpu.rename.IdleCycles                 39683288                       # Number of cycles rename is idle
system.cpu.rename.BlockCycles                54273293                       # Number of cycles rename is blocking
system.cpu.rename.serializeStallCycles       27067316                       # count of cycles rename stalled for serializing inst
system.cpu.rename.RunCycles                  16524219                       # Number of cycles rename is running
system.cpu.rename.UnblockCycles              13181178                       # Number of cycles rename is unblocking
system.cpu.rename.RenamedInsts              104248731                       # Number of instructions processed by rename
system.cpu.rename.ROBFullEvents                248772                       # Number of times rename has blocked due to ROB full
system.cpu.rename.IQFullEvents                7785364                       # Number of times rename has blocked due to IQ full
system.cpu.rename.LQFullEvents                 998854                       # Number of times rename has blocked due to LQ full
system.cpu.rename.SQFullEvents                2020739                       # Number of times rename has blocked due to SQ full
system.cpu.rename.RenamedOperands            75152965                       # Number of destination operands rename has renamed
system.cpu.rename.RenameLookups             133914365                       # Number of register rename lookups that rename has made
system.cpu.rename.int_rename_lookups        133713152                       # Number of integer rename lookups
system.cpu.rename.fp_rename_lookups            187014                       # Number of floating rename lookups
system.cpu.rename.CommittedMaps              66003783                       # Number of HB maps that are committed
system.cpu.rename.UndoneMaps                  9149174                       # Number of HB maps that are undone due to squashing
system.cpu.rename.serializingInsts            1965220                       # count of serializing insts renamed
system.cpu.rename.tempSerializingInsts         315194                       # count of temporary serializing insts renamed
system.cpu.rename.skidInsts                  25638628                       # count of insts added to the skid buffer
system.cpu.memDep0.insertedLoads             18093120                       # Number of loads inserted to the mem dependence unit.
system.cpu.memDep0.insertedStores             9099603                       # Number of stores inserted to the mem dependence unit.
system.cpu.memDep0.conflictingLoads           2359872                       # Number of conflicting loads.
system.cpu.memDep0.conflictingStores          1576332                       # Number of conflicting stores.
system.cpu.iq.iqInstsAdded                   97755818                       # Number of instructions added to the IQ (excludes non-spec)
system.cpu.iq.iqNonSpecInstsAdded             2671353                       # Number of non-speculative instructions added to the IQ
system.cpu.iq.iqInstsIssued                  95574479                       # Number of instructions issued
system.cpu.iq.iqSquashedInstsIssued             82151                       # Number of squashed instructions issued
system.cpu.iq.iqSquashedInstsExamined        11407021                       # Number of squashed instructions iterated over during squash; mainly for profiling
system.cpu.iq.iqSquashedOperandsExamined      5697967                       # Number of squashed operands that are examined and possibly removed from graph
system.cpu.iq.iqSquashedNonSpecRemoved        1689831                       # Number of squashed non-spec instructions that were removed
system.cpu.iq.issued_per_cycle::samples     151543822                       # Number of insts issued each cycle
system.cpu.iq.issued_per_cycle::mean         0.630672                       # Number of insts issued each cycle
system.cpu.iq.issued_per_cycle::stdev        1.334020                       # Number of insts issued each cycle
system.cpu.iq.issued_per_cycle::underflows            0      0.00%      0.00% # Number of insts issued each cycle
system.cpu.iq.issued_per_cycle::0           109856713     72.49%     72.49% # Number of insts issued each cycle
system.cpu.iq.issued_per_cycle::1            19719596     13.01%     85.50% # Number of insts issued each cycle
system.cpu.iq.issued_per_cycle::2             7719312      5.09%     90.60% # Number of insts issued each cycle
system.cpu.iq.issued_per_cycle::3             4947666      3.26%     93.86% # Number of insts issued each cycle
system.cpu.iq.issued_per_cycle::4             4627462      3.05%     96.92% # Number of insts issued each cycle
system.cpu.iq.issued_per_cycle::5             2292939      1.51%     98.43% # Number of insts issued each cycle
system.cpu.iq.issued_per_cycle::6             1391539      0.92%     99.35% # Number of insts issued each cycle
system.cpu.iq.issued_per_cycle::7              659276      0.44%     99.78% # Number of insts issued each cycle
system.cpu.iq.issued_per_cycle::8              329319      0.22%    100.00% # Number of insts issued each cycle
system.cpu.iq.issued_per_cycle::overflows            0      0.00%    100.00% # Number of insts issued each cycle
system.cpu.iq.issued_per_cycle::min_value            0                       # Number of insts issued each cycle
system.cpu.iq.issued_per_cycle::max_value            8                       # Number of insts issued each cycle
system.cpu.iq.issued_per_cycle::total       151543822                       # Number of insts issued each cycle
system.cpu.iq.fu_full::No_OpClass                   0      0.00%      0.00% # attempts to use FU when none available
system.cpu.iq.fu_full::IntAlu                  404150     23.53%     23.53% # attempts to use FU when none available
system.cpu.iq.fu_full::IntMult                      7      0.00%     23.53% # attempts to use FU when none available
system.cpu.iq.fu_full::IntDiv                       0      0.00%     23.53% # attempts to use FU when none available
system.cpu.iq.fu_full::FloatAdd                     0      0.00%     23.53% # attempts to use FU when none available
system.cpu.iq.fu_full::FloatCmp                     0      0.00%     23.53% # attempts to use FU when none available
system.cpu.iq.fu_full::FloatCvt                     0      0.00%     23.53% # attempts to use FU when none available
system.cpu.iq.fu_full::FloatMult                    0      0.00%     23.53% # attempts to use FU when none available
system.cpu.iq.fu_full::FloatDiv                     0      0.00%     23.53% # attempts to use FU when none available
system.cpu.iq.fu_full::FloatSqrt                    0      0.00%     23.53% # attempts to use FU when none available
system.cpu.iq.fu_full::SimdAdd                      0      0.00%     23.53% # attempts to use FU when none available
system.cpu.iq.fu_full::SimdAddAcc                   0      0.00%     23.53% # attempts to use FU when none available
system.cpu.iq.fu_full::SimdAlu                      0      0.00%     23.53% # attempts to use FU when none available
system.cpu.iq.fu_full::SimdCmp                      0      0.00%     23.53% # attempts to use FU when none available
system.cpu.iq.fu_full::SimdCvt                      0      0.00%     23.53% # attempts to use FU when none available
system.cpu.iq.fu_full::SimdMisc                     0      0.00%     23.53% # attempts to use FU when none available
system.cpu.iq.fu_full::SimdMult                     0      0.00%     23.53% # attempts to use FU when none available
system.cpu.iq.fu_full::SimdMultAcc                  0      0.00%     23.53% # attempts to use FU when none available
system.cpu.iq.fu_full::SimdShift                    0      0.00%     23.53% # attempts to use FU when none available
system.cpu.iq.fu_full::SimdShiftAcc                 0      0.00%     23.53% # attempts to use FU when none available
system.cpu.iq.fu_full::SimdSqrt                     0      0.00%     23.53% # attempts to use FU when none available
system.cpu.iq.fu_full::SimdFloatAdd                 0      0.00%     23.53% # attempts to use FU when none available
system.cpu.iq.fu_full::SimdFloatAlu                 0      0.00%     23.53% # attempts to use FU when none available
system.cpu.iq.fu_full::SimdFloatCmp                 0      0.00%     23.53% # attempts to use FU when none available
system.cpu.iq.fu_full::SimdFloatCvt                 0      0.00%     23.53% # attempts to use FU when none available
system.cpu.iq.fu_full::SimdFloatDiv                 0      0.00%     23.53% # attempts to use FU when none available
system.cpu.iq.fu_full::SimdFloatMisc                0      0.00%     23.53% # attempts to use FU when none available
system.cpu.iq.fu_full::SimdFloatMult                0      0.00%     23.53% # attempts to use FU when none available
system.cpu.iq.fu_full::SimdFloatMultAcc             0      0.00%     23.53% # attempts to use FU when none available
system.cpu.iq.fu_full::SimdFloatSqrt                0      0.00%     23.53% # attempts to use FU when none available
system.cpu.iq.fu_full::MemRead                 791284     46.07%     69.61% # attempts to use FU when none available
system.cpu.iq.fu_full::MemWrite                521976     30.39%    100.00% # attempts to use FU when none available
system.cpu.iq.fu_full::IprAccess                    0      0.00%    100.00% # attempts to use FU when none available
system.cpu.iq.fu_full::InstPrefetch                 0      0.00%    100.00% # attempts to use FU when none available
system.cpu.iq.FU_type_0::No_OpClass              8371      0.01%      0.01% # Type of FU issued
system.cpu.iq.FU_type_0::IntAlu              67093726     70.20%     70.21% # Type of FU issued
system.cpu.iq.FU_type_0::IntMult               159341      0.17%     70.38% # Type of FU issued
system.cpu.iq.FU_type_0::IntDiv                     0      0.00%     70.38% # Type of FU issued
system.cpu.iq.FU_type_0::FloatAdd               86026      0.09%     70.47% # Type of FU issued
system.cpu.iq.FU_type_0::FloatCmp                   0      0.00%     70.47% # Type of FU issued
system.cpu.iq.FU_type_0::FloatCvt                   0      0.00%     70.47% # Type of FU issued
system.cpu.iq.FU_type_0::FloatMult                  0      0.00%     70.47% # Type of FU issued
system.cpu.iq.FU_type_0::FloatDiv                4183      0.00%     70.47% # Type of FU issued
system.cpu.iq.FU_type_0::FloatSqrt                  0      0.00%     70.47% # Type of FU issued
system.cpu.iq.FU_type_0::SimdAdd                    0      0.00%     70.47% # Type of FU issued
system.cpu.iq.FU_type_0::SimdAddAcc                 0      0.00%     70.47% # Type of FU issued
system.cpu.iq.FU_type_0::SimdAlu                    0      0.00%     70.47% # Type of FU issued
system.cpu.iq.FU_type_0::SimdCmp                    0      0.00%     70.47% # Type of FU issued
system.cpu.iq.FU_type_0::SimdCvt                    0      0.00%     70.47% # Type of FU issued
system.cpu.iq.FU_type_0::SimdMisc                   0      0.00%     70.47% # Type of FU issued
system.cpu.iq.FU_type_0::SimdMult                   0      0.00%     70.47% # Type of FU issued
system.cpu.iq.FU_type_0::SimdMultAcc                0      0.00%     70.47% # Type of FU issued
system.cpu.iq.FU_type_0::SimdShift                  0      0.00%     70.47% # Type of FU issued
system.cpu.iq.FU_type_0::SimdShiftAcc               0      0.00%     70.47% # Type of FU issued
system.cpu.iq.FU_type_0::SimdSqrt                   0      0.00%     70.47% # Type of FU issued
system.cpu.iq.FU_type_0::SimdFloatAdd               0      0.00%     70.47% # Type of FU issued
system.cpu.iq.FU_type_0::SimdFloatAlu               0      0.00%     70.47% # Type of FU issued
system.cpu.iq.FU_type_0::SimdFloatCmp               0      0.00%     70.47% # Type of FU issued
system.cpu.iq.FU_type_0::SimdFloatCvt               0      0.00%     70.47% # Type of FU issued
system.cpu.iq.FU_type_0::SimdFloatDiv               0      0.00%     70.47% # Type of FU issued
system.cpu.iq.FU_type_0::SimdFloatMisc              0      0.00%     70.47% # Type of FU issued
system.cpu.iq.FU_type_0::SimdFloatMult              0      0.00%     70.47% # Type of FU issued
system.cpu.iq.FU_type_0::SimdFloatMultAcc            0      0.00%     70.47% # Type of FU issued
system.cpu.iq.FU_type_0::SimdFloatSqrt              0      0.00%     70.47% # Type of FU issued
system.cpu.iq.FU_type_0::MemRead             18287837     19.13%     89.60% # Type of FU issued
system.cpu.iq.FU_type_0::MemWrite             8857013      9.27%     98.87% # Type of FU issued
system.cpu.iq.FU_type_0::IprAccess            1077982      1.13%    100.00% # Type of FU issued
system.cpu.iq.FU_type_0::InstPrefetch               0      0.00%    100.00% # Type of FU issued
system.cpu.iq.FU_type_0::total               95574479                       # Type of FU issued
system.cpu.iq.rate                           0.562067                       # Inst issue rate
system.cpu.iq.fu_busy_cnt                     1717417                       # FU busy when requested
system.cpu.iq.fu_busy_rate                   0.017969                       # FU busy rate (busy events/executed inst)
system.cpu.iq.int_inst_queue_reads          343622956                       # Number of integer instruction queue reads
system.cpu.iq.int_inst_queue_writes         111451651                       # Number of integer instruction queue writes
system.cpu.iq.int_inst_queue_wakeup_accesses     93444619                       # Number of integer instruction queue wakeup accesses
system.cpu.iq.fp_inst_queue_reads              869391                       # Number of floating instruction queue reads
system.cpu.iq.fp_inst_queue_writes             415871                       # Number of floating instruction queue writes
system.cpu.iq.fp_inst_queue_wakeup_accesses       405124                       # Number of floating instruction queue wakeup accesses
system.cpu.iq.int_alu_accesses               96820221                       # Number of integer alu accesses
system.cpu.iq.fp_alu_accesses                  463304                       # Number of floating point alu accesses
system.cpu.iew.lsq.thread0.forwLoads           834355                       # Number of loads that had data forwarded from stores
system.cpu.iew.lsq.thread0.invAddrLoads             0                       # Number of loads ignored due to an invalid address
system.cpu.iew.lsq.thread0.squashedLoads      2195849                       # Number of loads squashed
system.cpu.iew.lsq.thread0.ignoredResponses         3330                       # Number of memory responses ignored because the instruction is squashed
system.cpu.iew.lsq.thread0.memOrderViolation        33893                       # Number of memory ordering violations
system.cpu.iew.lsq.thread0.squashedStores       867583                       # Number of stores squashed
system.cpu.iew.lsq.thread0.invAddrSwpfs             0                       # Number of software prefetches ignored due to an invalid address
system.cpu.iew.lsq.thread0.blockedLoads             0                       # Number of blocked loads due to partial load-store forwarding
system.cpu.iew.lsq.thread0.rescheduledLoads        20300                       # Number of loads that were rescheduled
system.cpu.iew.lsq.thread0.cacheBlocked        436505                       # Number of times an access to memory failed due to the cache being blocked
system.cpu.iew.iewIdleCycles                        0                       # Number of cycles IEW is idle
system.cpu.iew.iewSquashCycles                 814526                       # Number of cycles IEW is squashing
system.cpu.iew.iewBlockCycles                46415081                       # Number of cycles IEW is blocking
system.cpu.iew.iewUnblockCycles               1180712                       # Number of cycles IEW is unblocking
[...]
system.cpu.dcache.WriteReq_accesses::cpu.data       129687                       # number of WriteReq accesses(hits+misses)
system.cpu.dcache.WriteReq_accesses::total       129687                       # number of WriteReq accesses(hits+misses)
system.cpu.dcache.LoadLockedReq_accesses::cpu.data         2695                       # number of LoadLockedReq accesses(hits+misses)
system.cpu.dcache.LoadLockedReq_accesses::total         2695                       # number of LoadLockedReq accesses(hits+misses)
system.cpu.dcache.StoreCondReq_accesses::cpu.data         2451                       # number of StoreCondReq accesses(hits+misses)
system.cpu.dcache.StoreCondReq_accesses::total         2451                       # number of StoreCondReq accesses(hits+misses)
system.cpu.dcache.demand_accesses::cpu.data       286084                       # number of demand (read+write) accesses
system.cpu.dcache.demand_accesses::total       286084                       # number of demand (read+write) accesses
system.cpu.dcache.overall_accesses::cpu.data       286084                       # number of overall (read+write) accesses
system.cpu.dcache.overall_accesses::total       286084                       # number of overall (read+write) accesses
system.cpu.dcache.ReadReq_miss_rate::cpu.data     0.183386                       # miss rate for ReadReq accesses
system.cpu.dcache.ReadReq_miss_rate::total     0.183386                       # miss rate for ReadReq accesses
system.cpu.dcache.WriteReq_miss_rate::cpu.data     0.531395                       # miss rate for WriteReq accesses
system.cpu.dcache.WriteReq_miss_rate::total     0.531395                       # miss rate for WriteReq accesses
system.cpu.dcache.LoadLockedReq_miss_rate::cpu.data     0.139518                       # miss rate for LoadLockedReq accesses
system.cpu.dcache.LoadLockedReq_miss_rate::total     0.139518                       # miss rate for LoadLockedReq accesses
system.cpu.dcache.StoreCondReq_miss_rate::cpu.data     0.000408                       # miss rate for StoreCondReq accesses
system.cpu.dcache.StoreCondReq_miss_rate::total     0.000408                       # miss rate for StoreCondReq accesses
system.cpu.dcache.demand_miss_rate::cpu.data     0.341145                       # miss rate for demand accesses
system.cpu.dcache.demand_miss_rate::total     0.341145                       # miss rate for demand accesses
system.cpu.dcache.overall_miss_rate::cpu.data     0.341145                       # miss rate for overall accesses
system.cpu.dcache.overall_miss_rate::total     0.341145                       # miss rate for overall accesses
system.cpu.dcache.ReadReq_avg_miss_latency::cpu.data 61376.576270                       # average ReadReq miss latency
system.cpu.dcache.ReadReq_avg_miss_latency::total 61376.576270                       # average ReadReq miss latency
system.cpu.dcache.WriteReq_avg_miss_latency::cpu.data 66554.062120                       # average WriteReq miss latency
system.cpu.dcache.WriteReq_avg_miss_latency::total 66554.062120                       # average WriteReq miss latency
system.cpu.dcache.LoadLockedReq_avg_miss_latency::cpu.data 67832.122340                       # average LoadLockedReq miss latency
system.cpu.dcache.LoadLockedReq_avg_miss_latency::total 67832.122340                       # average LoadLockedReq miss latency
system.cpu.dcache.StoreCondReq_avg_miss_latency::cpu.data         9079                       # average StoreCondReq miss latency
system.cpu.dcache.StoreCondReq_avg_miss_latency::total         9079                       # average StoreCondReq miss latency
system.cpu.dcache.demand_avg_miss_latency::cpu.data 65032.529766                       # average overall miss latency
system.cpu.dcache.demand_avg_miss_latency::total 65032.529766                       # average overall miss latency
system.cpu.dcache.overall_avg_miss_latency::cpu.data 65032.529766                       # average overall miss latency
system.cpu.dcache.overall_avg_miss_latency::total 65032.529766                       # average overall miss latency
system.cpu.dcache.blocked_cycles::no_mshrs        77566                       # number of cycles access was blocked
system.cpu.dcache.blocked_cycles::no_targets            0                       # number of cycles access was blocked
system.cpu.dcache.blocked::no_mshrs              4921                       # number of cycles access was blocked
system.cpu.dcache.blocked::no_targets               0                       # number of cycles access was blocked
system.cpu.dcache.avg_blocked_cycles::no_mshrs    15.762243                       # average number of cycles each access was blocked
system.cpu.dcache.avg_blocked_cycles::no_targets          nan                       # average number of cycles each access was blocked
system.cpu.dcache.fast_writes                       0                       # number of fast writes performed
system.cpu.dcache.cache_copies                      0                       # number of cache copies performed
system.cpu.dcache.writebacks::writebacks        10370                       # number of writebacks
system.cpu.dcache.writebacks::total             10370                       # number of writebacks
system.cpu.dcache.ReadReq_mshr_hits::cpu.data        20845                       # number of ReadReq MSHR hits
system.cpu.dcache.ReadReq_mshr_hits::total        20845                       # number of ReadReq MSHR hits
system.cpu.dcache.WriteReq_mshr_hits::cpu.data        59882                       # number of WriteReq MSHR hits
system.cpu.dcache.WriteReq_mshr_hits::total        59882                       # number of WriteReq MSHR hits
system.cpu.dcache.LoadLockedReq_mshr_hits::cpu.data          183                       # number of LoadLockedReq MSHR hits
system.cpu.dcache.LoadLockedReq_mshr_hits::total          183                       # number of LoadLockedReq MSHR hits
system.cpu.dcache.demand_mshr_hits::cpu.data        80727                       # number of demand (read+write) MSHR hits
system.cpu.dcache.demand_mshr_hits::total        80727                       # number of demand (read+write) MSHR hits
system.cpu.dcache.overall_mshr_hits::cpu.data        80727                       # number of overall MSHR hits
system.cpu.dcache.overall_mshr_hits::total        80727                       # number of overall MSHR hits
system.cpu.dcache.ReadReq_mshr_misses::cpu.data         7836                       # number of ReadReq MSHR misses
system.cpu.dcache.ReadReq_mshr_misses::total         7836                       # number of ReadReq MSHR misses
system.cpu.dcache.WriteReq_mshr_misses::cpu.data         9033                       # number of WriteReq MSHR misses
system.cpu.dcache.WriteReq_mshr_misses::total         9033                       # number of WriteReq MSHR misses
system.cpu.dcache.LoadLockedReq_mshr_misses::cpu.data          193                       # number of LoadLockedReq MSHR misses
system.cpu.dcache.LoadLockedReq_mshr_misses::total          193                       # number of LoadLockedReq MSHR misses
system.cpu.dcache.StoreCondReq_mshr_misses::cpu.data            1                       # number of StoreCondReq MSHR misses
system.cpu.dcache.StoreCondReq_mshr_misses::total            1                       # number of StoreCondReq MSHR misses
system.cpu.dcache.demand_mshr_misses::cpu.data        16869                       # number of demand (read+write) MSHR misses
system.cpu.dcache.demand_mshr_misses::total        16869                       # number of demand (read+write) MSHR misses
system.cpu.dcache.overall_mshr_misses::cpu.data        16869                       # number of overall MSHR misses
system.cpu.dcache.overall_mshr_misses::total        16869                       # number of overall MSHR misses
system.cpu.dcache.ReadReq_mshr_miss_latency::cpu.data    478473130                       # number of ReadReq MSHR miss cycles
system.cpu.dcache.ReadReq_mshr_miss_latency::total    478473130                       # number of ReadReq MSHR miss cycles
system.cpu.dcache.WriteReq_mshr_miss_latency::cpu.data    594429942                       # number of WriteReq MSHR miss cycles
system.cpu.dcache.WriteReq_mshr_miss_latency::total    594429942                       # number of WriteReq MSHR miss cycles
system.cpu.dcache.LoadLockedReq_mshr_miss_latency::cpu.data     12403972                       # number of LoadLockedReq MSHR miss cycles
system.cpu.dcache.LoadLockedReq_mshr_miss_latency::total     12403972                       # number of LoadLockedReq MSHR miss cycles
system.cpu.dcache.StoreCondReq_mshr_miss_latency::cpu.data         2817                       # number of StoreCondReq MSHR miss cycles
system.cpu.dcache.StoreCondReq_mshr_miss_latency::total         2817                       # number of StoreCondReq MSHR miss cycles
system.cpu.dcache.demand_mshr_miss_latency::cpu.data   1072903072                       # number of demand (read+write) MSHR miss cycles
system.cpu.dcache.demand_mshr_miss_latency::total   1072903072                       # number of demand (read+write) MSHR miss cycles
system.cpu.dcache.overall_mshr_miss_latency::cpu.data   1072903072                       # number of overall MSHR miss cycles
system.cpu.dcache.overall_mshr_miss_latency::total   1072903072                       # number of overall MSHR miss cycles
system.cpu.dcache.WriteReq_mshr_uncacheable_latency::cpu.data       203640                       # number of WriteReq MSHR uncacheable cycles
system.cpu.dcache.WriteReq_mshr_uncacheable_latency::total       203640                       # number of WriteReq MSHR uncacheable cycles
system.cpu.dcache.overall_mshr_uncacheable_latency::cpu.data       203640                       # number of overall MSHR uncacheable cycles
system.cpu.dcache.overall_mshr_uncacheable_latency::total       203640                       # number of overall MSHR uncacheable cycles
system.cpu.dcache.ReadReq_mshr_miss_rate::cpu.data     0.050103                       # mshr miss rate for ReadReq accesses
system.cpu.dcache.ReadReq_mshr_miss_rate::total     0.050103                       # mshr miss rate for ReadReq accesses
system.cpu.dcache.WriteReq_mshr_miss_rate::cpu.data     0.069652                       # mshr miss rate for WriteReq accesses
system.cpu.dcache.WriteReq_mshr_miss_rate::total     0.069652                       # mshr miss rate for WriteReq accesses
system.cpu.dcache.LoadLockedReq_mshr_miss_rate::cpu.data     0.071614                       # mshr miss rate for LoadLockedReq accesses
system.cpu.dcache.LoadLockedReq_mshr_miss_rate::total     0.071614                       # mshr miss rate for LoadLockedReq accesses
system.cpu.dcache.StoreCondReq_mshr_miss_rate::cpu.data     0.000408                       # mshr miss rate for StoreCondReq accesses
system.cpu.dcache.StoreCondReq_mshr_miss_rate::total     0.000408                       # mshr miss rate for StoreCondReq accesses
system.cpu.dcache.demand_mshr_miss_rate::cpu.data     0.058965                       # mshr miss rate for demand accesses
system.cpu.dcache.demand_mshr_miss_rate::total     0.058965                       # mshr miss rate for demand accesses
system.cpu.dcache.overall_mshr_miss_rate::cpu.data     0.058965                       # mshr miss rate for overall accesses
system.cpu.dcache.overall_mshr_miss_rate::total     0.058965                       # mshr miss rate for overall accesses
system.cpu.dcache.ReadReq_avg_mshr_miss_latency::cpu.data 61060.889484                       # average ReadReq mshr miss latency
system.cpu.dcache.ReadReq_avg_mshr_miss_latency::total 61060.889484                       # average ReadReq mshr miss latency
system.cpu.dcache.WriteReq_avg_mshr_miss_latency::cpu.data 65806.480903                       # average WriteReq mshr miss latency
system.cpu.dcache.WriteReq_avg_mshr_miss_latency::total 65806.480903                       # average WriteReq mshr miss latency
system.cpu.dcache.LoadLockedReq_avg_mshr_miss_latency::cpu.data 64269.284974                       # average LoadLockedReq mshr miss latency
system.cpu.dcache.LoadLockedReq_avg_mshr_miss_latency::total 64269.284974                       # average LoadLockedReq mshr miss latency
system.cpu.dcache.StoreCondReq_avg_mshr_miss_latency::cpu.data         2817                       # average StoreCondReq mshr miss latency
system.cpu.dcache.StoreCondReq_avg_mshr_miss_latency::total         2817                       # average StoreCondReq mshr miss latency
system.cpu.dcache.demand_avg_mshr_miss_latency::cpu.data 63602.055368                       # average overall mshr miss latency
system.cpu.dcache.demand_avg_mshr_miss_latency::total 63602.055368                       # average overall mshr miss latency
system.cpu.dcache.overall_avg_mshr_miss_latency::cpu.data 63602.055368                       # average overall mshr miss latency
system.cpu.dcache.overall_avg_mshr_miss_latency::total 63602.055368                       # average overall mshr miss latency
system.cpu.dcache.WriteReq_avg_mshr_uncacheable_latency::cpu.data          inf                       # average WriteReq mshr uncacheable latency
system.cpu.dcache.WriteReq_avg_mshr_uncacheable_latency::total          inf                       # average WriteReq mshr uncacheable latency
system.cpu.dcache.overall_avg_mshr_uncacheable_latency::cpu.data          inf                       # average overall mshr uncacheable latency
system.cpu.dcache.overall_avg_mshr_uncacheable_latency::total          inf                       # average overall mshr uncacheable latency
system.cpu.dcache.no_allocate_misses                0                       # Number of misses that were no-allocate
system.cpu.kern.inst.arm                            0                       # number of arm instructions executed
system.cpu.kern.inst.quiesce                        0                       # number of quiesce instructions executed
system.cpu.kern.inst.hwrei                       2634                       # number of hwrei instructions executed
system.cpu.kern.ipl_count::0                      540     49.00%     49.00% # number of times we switched to this ipl
system.cpu.kern.ipl_count::22                       1      0.09%     49.09% # number of times we switched to this ipl
system.cpu.kern.ipl_count::31                     561     50.91%    100.00% # number of times we switched to this ipl
system.cpu.kern.ipl_count::total                 1102                       # number of times we switched to this ipl
system.cpu.kern.ipl_good::0                       538     49.95%     49.95% # number of times we switched to this ipl from a different ipl
system.cpu.kern.ipl_good::22                        1      0.09%     50.05% # number of times we switched to this ipl from a different ipl
system.cpu.kern.ipl_good::31                      538     49.95%    100.00% # number of times we switched to this ipl from a different ipl
system.cpu.kern.ipl_good::total                  1077                       # number of times we switched to this ipl from a different ipl
system.cpu.kern.ipl_ticks::0               1470132224     90.68%     90.68% # number of cycles we spent at this ipl
system.cpu.kern.ipl_ticks::22                 1117952      0.07%     90.75% # number of cycles we spent at this ipl
system.cpu.kern.ipl_ticks::31               149999872      9.25%    100.00% # number of cycles we spent at this ipl
system.cpu.kern.ipl_ticks::total           1621250048                       # number of cycles we spent at this ipl
system.cpu.kern.ipl_used::0                  0.996296                       # fraction of swpipl calls that actually changed the ipl
system.cpu.kern.ipl_used::22                        1                       # fraction of swpipl calls that actually changed the ipl
system.cpu.kern.ipl_used::31                 0.959002                       # fraction of swpipl calls that actually changed the ipl
system.cpu.kern.ipl_used::total              0.977314                       # fraction of swpipl calls that actually changed the ipl
system.cpu.kern.syscall::2                          1      5.88%      5.88% # number of syscalls executed
system.cpu.kern.syscall::3                          2     11.76%     17.65% # number of syscalls executed
system.cpu.kern.syscall::6                          2     11.76%     29.41% # number of syscalls executed
system.cpu.kern.syscall::17                         1      5.88%     35.29% # number of syscalls executed
system.cpu.kern.syscall::33                         1      5.88%     41.18% # number of syscalls executed
system.cpu.kern.syscall::45                         3     17.65%     58.82% # number of syscalls executed
system.cpu.kern.syscall::48                         1      5.88%     64.71% # number of syscalls executed
system.cpu.kern.syscall::59                         1      5.88%     70.59% # number of syscalls executed
system.cpu.kern.syscall::71                         4     23.53%     94.12% # number of syscalls executed
system.cpu.kern.syscall::74                         1      5.88%    100.00% # number of syscalls executed
system.cpu.kern.syscall::total                     17                       # number of syscalls executed
system.cpu.kern.callpal::swpctx                   121      9.52%      9.52% # number of callpals executed
system.cpu.kern.callpal::tbi                        6      0.47%      9.99% # number of callpals executed
system.cpu.kern.callpal::swpipl                   913     71.83%     81.83% # number of callpals executed
system.cpu.kern.callpal::rdps                       3      0.24%     82.06% # number of callpals executed
system.cpu.kern.callpal::wrusp                      1      0.08%     82.14% # number of callpals executed
system.cpu.kern.callpal::rdusp                      1      0.08%     82.22% # number of callpals executed
system.cpu.kern.callpal::rti                      188     14.79%     97.01% # number of callpals executed
system.cpu.kern.callpal::callsys                   34      2.68%     99.69% # number of callpals executed
system.cpu.kern.callpal::imb                        4      0.31%    100.00% # number of callpals executed
system.cpu.kern.callpal::total                   1271                       # number of callpals executed
system.cpu.kern.mode_switch::kernel               309                       # number of protection mode switches
system.cpu.kern.mode_switch::user                 185                       # number of protection mode switches
system.cpu.kern.mode_switch::idle                   0                       # number of protection mode switches
system.cpu.kern.mode_good::kernel                 185                      
system.cpu.kern.mode_good::user                   185                      
system.cpu.kern.mode_good::idle                     0                      
system.cpu.kern.mode_switch_good::kernel     0.598706                       # fraction of useful protection mode switches
system.cpu.kern.mode_switch_good::user              1                       # fraction of useful protection mode switches
system.cpu.kern.mode_switch_good::idle            nan                       # fraction of useful protection mode switches
system.cpu.kern.mode_switch_good::total      0.748988                       # fraction of useful protection mode switches
system.cpu.kern.mode_ticks::kernel         1088873984     67.16%     67.16% # number of ticks spent at the given mode
system.cpu.kern.mode_ticks::user            532376064     32.84%    100.00% # number of ticks spent at the given mode
system.cpu.kern.mode_ticks::idle                    0      0.00%    100.00% # number of ticks spent at the given mode
system.cpu.kern.swap_context                      121                       # number of times the context was actually changed

---------- End Simulation Statistics   ----------
