
---------- Begin Simulation Statistics ----------
sim_seconds                                  2.257381                       # Number of seconds simulated
sim_ticks                                2257380731000                       # Number of ticks simulated
final_tick                               2257380731000                       # Number of ticks from beginning of simulation (restored from checkpoints and never reset)
sim_freq                                 1000000000000                       # Frequency of simulated ticks
host_inst_rate                                3426931                       # Simulator instruction rate (inst/s)
host_op_rate                                  3426930                       # Simulator op (including micro ops) rate (op/s)
host_tick_rate                            70595053545                       # Simulator tick rate (ticks/s)
host_mem_usage                                 450284                       # Number of bytes of host memory used
host_seconds                                    31.98                       # Real time elapsed on the host
sim_insts                                   109581086                       # Number of instructions simulated
sim_ops                                     109581086                       # Number of ops (including micro ops) simulated
system.voltage_domain.voltage                       1                       # Voltage in Volts
system.clk_domain.clock                          1000                       # Clock period in ticks
system.mem_ctrls.bytes_read::cpu0.inst      262665184                       # Number of bytes read from this memory
system.mem_ctrls.bytes_read::cpu0.data       79576892                       # Number of bytes read from this memory
system.mem_ctrls.bytes_read::tsunami.ide         5256                       # Number of bytes read from this memory
system.mem_ctrls.bytes_read::cpu1.inst       20210096                       # Number of bytes read from this memory
system.mem_ctrls.bytes_read::cpu1.data        7938236                       # Number of bytes read from this memory
system.mem_ctrls.bytes_read::cpu2.inst      101153608                       # Number of bytes read from this memory
system.mem_ctrls.bytes_read::cpu2.data       36420848                       # Number of bytes read from this memory
system.mem_ctrls.bytes_read::cpu3.inst       54352136                       # Number of bytes read from this memory
system.mem_ctrls.bytes_read::cpu3.data       20212716                       # Number of bytes read from this memory
system.mem_ctrls.bytes_read::total          582534972                       # Number of bytes read from this memory
system.mem_ctrls.bytes_inst_read::cpu0.inst    262665184                       # Number of instructions bytes read from this memory
system.mem_ctrls.bytes_inst_read::cpu1.inst     20210096                       # Number of instructions bytes read from this memory
system.mem_ctrls.bytes_inst_read::cpu2.inst    101153608                       # Number of instructions bytes read from this memory
system.mem_ctrls.bytes_inst_read::cpu3.inst     54352136                       # Number of instructions bytes read from this memory
system.mem_ctrls.bytes_inst_read::total     438381024                       # Number of instructions bytes read from this memory
system.mem_ctrls.bytes_written::cpu0.data     36110408                       # Number of bytes written to this memory
system.mem_ctrls.bytes_written::tsunami.ide      2832384                       # Number of bytes written to this memory
system.mem_ctrls.bytes_written::cpu1.data      4743460                       # Number of bytes written to this memory
system.mem_ctrls.bytes_written::cpu2.data     23731724                       # Number of bytes written to this memory
system.mem_ctrls.bytes_written::cpu3.data     14273072                       # Number of bytes written to this memory
system.mem_ctrls.bytes_written::total        81691048                       # Number of bytes written to this memory
system.mem_ctrls.num_reads::cpu0.inst        65666296                       # Number of read requests responded to by this memory
system.mem_ctrls.num_reads::cpu0.data        11237377                       # Number of read requests responded to by this memory
system.mem_ctrls.num_reads::tsunami.ide           209                       # Number of read requests responded to by this memory
system.mem_ctrls.num_reads::cpu1.inst         5052524                       # Number of read requests responded to by this memory
system.mem_ctrls.num_reads::cpu1.data         1089267                       # Number of read requests responded to by this memory
system.mem_ctrls.num_reads::cpu2.inst        25288402                       # Number of read requests responded to by this memory
system.mem_ctrls.num_reads::cpu2.data         4875630                       # Number of read requests responded to by this memory
system.mem_ctrls.num_reads::cpu3.inst        13588034                       # Number of read requests responded to by this memory
system.mem_ctrls.num_reads::cpu3.data         2753551                       # Number of read requests responded to by this memory
system.mem_ctrls.num_reads::total           129551290                       # Number of read requests responded to by this memory
system.mem_ctrls.num_writes::cpu0.data        4844447                       # Number of write requests responded to by this memory
system.mem_ctrls.num_writes::tsunami.ide        44256                       # Number of write requests responded to by this memory
system.mem_ctrls.num_writes::cpu1.data         617362                       # Number of write requests responded to by this memory
system.mem_ctrls.num_writes::cpu2.data        3086408                       # Number of write requests responded to by this memory
system.mem_ctrls.num_writes::cpu3.data        1872778                       # Number of write requests responded to by this memory
system.mem_ctrls.num_writes::total           10465251                       # Number of write requests responded to by this memory
system.mem_ctrls.bw_read::cpu0.inst         116358388                       # Total read bandwidth from this memory (bytes/s)
system.mem_ctrls.bw_read::cpu0.data          35251870                       # Total read bandwidth from this memory (bytes/s)
system.mem_ctrls.bw_read::tsunami.ide            2328                       # Total read bandwidth from this memory (bytes/s)
system.mem_ctrls.bw_read::cpu1.inst           8952896                       # Total read bandwidth from this memory (bytes/s)
system.mem_ctrls.bw_read::cpu1.data           3516569                       # Total read bandwidth from this memory (bytes/s)
system.mem_ctrls.bw_read::cpu2.inst          44810167                       # Total read bandwidth from this memory (bytes/s)
system.mem_ctrls.bw_read::cpu2.data          16134118                       # Total read bandwidth from this memory (bytes/s)
system.mem_ctrls.bw_read::cpu3.inst          24077523                       # Total read bandwidth from this memory (bytes/s)
system.mem_ctrls.bw_read::cpu3.data           8954057                       # Total read bandwidth from this memory (bytes/s)
system.mem_ctrls.bw_read::total             258057918                       # Total read bandwidth from this memory (bytes/s)
system.mem_ctrls.bw_inst_read::cpu0.inst    116358388                       # Instruction read bandwidth from this memory (bytes/s)
system.mem_ctrls.bw_inst_read::cpu1.inst      8952896                       # Instruction read bandwidth from this memory (bytes/s)
system.mem_ctrls.bw_inst_read::cpu2.inst     44810167                       # Instruction read bandwidth from this memory (bytes/s)
system.mem_ctrls.bw_inst_read::cpu3.inst     24077523                       # Instruction read bandwidth from this memory (bytes/s)
system.mem_ctrls.bw_inst_read::total        194198975                       # Instruction read bandwidth from this memory (bytes/s)
system.mem_ctrls.bw_write::cpu0.data         15996596                       # Write bandwidth from this memory (bytes/s)
system.mem_ctrls.bw_write::tsunami.ide        1254721                       # Write bandwidth from this memory (bytes/s)
system.mem_ctrls.bw_write::cpu1.data          2101311                       # Write bandwidth from this memory (bytes/s)
system.mem_ctrls.bw_write::cpu2.data         10512947                       # Write bandwidth from this memory (bytes/s)
system.mem_ctrls.bw_write::cpu3.data          6322847                       # Write bandwidth from this memory (bytes/s)
system.mem_ctrls.bw_write::total             36188423                       # Write bandwidth from this memory (bytes/s)
system.mem_ctrls.bw_total::cpu0.inst        116358388                       # Total bandwidth to/from this memory (bytes/s)
system.mem_ctrls.bw_total::cpu0.data         51248466                       # Total bandwidth to/from this memory (bytes/s)
system.mem_ctrls.bw_total::tsunami.ide        1257050                       # Total bandwidth to/from this memory (bytes/s)
system.mem_ctrls.bw_total::cpu1.inst          8952896                       # Total bandwidth to/from this memory (bytes/s)
system.mem_ctrls.bw_total::cpu1.data          5617881                       # Total bandwidth to/from this memory (bytes/s)
system.mem_ctrls.bw_total::cpu2.inst         44810167                       # Total bandwidth to/from this memory (bytes/s)
system.mem_ctrls.bw_total::cpu2.data         26647065                       # Total bandwidth to/from this memory (bytes/s)
system.mem_ctrls.bw_total::cpu3.inst         24077523                       # Total bandwidth to/from this memory (bytes/s)
system.mem_ctrls.bw_total::cpu3.data         15276904                       # Total bandwidth to/from this memory (bytes/s)
system.mem_ctrls.bw_total::total            294246341                       # Total bandwidth to/from this memory (bytes/s)
system.mem_ctrls.readReqs                           0                       # Number of read requests accepted
system.mem_ctrls.writeReqs                          0                       # Number of write requests accepted
system.mem_ctrls.readBursts                         0                       # Number of DRAM read bursts, including those serviced by the write queue
system.mem_ctrls.writeBursts                        0                       # Number of DRAM write bursts, including those merged in the write queue
system.mem_ctrls.bytesReadDRAM                      0                       # Total number of bytes read from DRAM
system.mem_ctrls.bytesReadWrQ                       0                       # Total number of bytes read from write queue
system.mem_ctrls.bytesWritten                       0                       # Total number of bytes written to DRAM
system.mem_ctrls.bytesReadSys                       0                       # Total read bytes from the system interface side
system.mem_ctrls.bytesWrittenSys                    0                       # Total written bytes from the system interface side
system.mem_ctrls.servicedByWrQ                      0                       # Number of DRAM read bursts serviced by the write queue
system.mem_ctrls.mergedWrBursts                     0                       # Number of DRAM write bursts merged with an existing one
system.mem_ctrls.neitherReadNorWriteReqs            0                       # Number of requests that are neither read nor write
system.mem_ctrls.perBankRdBursts::0                 0                       # Per bank write bursts
system.mem_ctrls.perBankRdBursts::1                 0                       # Per bank write bursts
system.mem_ctrls.perBankRdBursts::2                 0                       # Per bank write bursts
system.mem_ctrls.perBankRdBursts::3                 0                       # Per bank write bursts
system.mem_ctrls.perBankRdBursts::4                 0                       # Per bank write bursts
system.mem_ctrls.perBankRdBursts::5                 0                       # Per bank write bursts
system.mem_ctrls.perBankRdBursts::6                 0                       # Per bank write bursts
system.mem_ctrls.perBankRdBursts::7                 0                       # Per bank write bursts
system.mem_ctrls.perBankRdBursts::8                 0                       # Per bank write bursts
system.mem_ctrls.perBankRdBursts::9                 0                       # Per bank write bursts
system.mem_ctrls.perBankRdBursts::10                0                       # Per bank write bursts
system.mem_ctrls.perBankRdBursts::11                0                       # Per bank write bursts
system.mem_ctrls.perBankRdBursts::12                0                       # Per bank write bursts
system.mem_ctrls.perBankRdBursts::13                0                       # Per bank write bursts
system.mem_ctrls.perBankRdBursts::14                0                       # Per bank write bursts
system.mem_ctrls.perBankRdBursts::15                0                       # Per bank write bursts
system.mem_ctrls.perBankWrBursts::0                 0                       # Per bank write bursts
system.mem_ctrls.perBankWrBursts::1                 0                       # Per bank write bursts
system.mem_ctrls.perBankWrBursts::2                 0                       # Per bank write bursts
system.mem_ctrls.perBankWrBursts::3                 0                       # Per bank write bursts
system.mem_ctrls.perBankWrBursts::4                 0                       # Per bank write bursts
system.mem_ctrls.perBankWrBursts::5                 0                       # Per bank write bursts
system.mem_ctrls.perBankWrBursts::6                 0                       # Per bank write bursts
system.mem_ctrls.perBankWrBursts::7                 0                       # Per bank write bursts
system.mem_ctrls.perBankWrBursts::8                 0                       # Per bank write bursts
system.mem_ctrls.perBankWrBursts::9                 0                       # Per bank write bursts
system.mem_ctrls.perBankWrBursts::10                0                       # Per bank write bursts
system.mem_ctrls.perBankWrBursts::11                0                       # Per bank write bursts
system.mem_ctrls.perBankWrBursts::12                0                       # Per bank write bursts
system.mem_ctrls.perBankWrBursts::13                0                       # Per bank write bursts
system.mem_ctrls.perBankWrBursts::14                0                       # Per bank write bursts
system.mem_ctrls.perBankWrBursts::15                0                       # Per bank write bursts
system.mem_ctrls.numRdRetry                         0                       # Number of times read queue was full causing retry
system.mem_ctrls.numWrRetry                         0                       # Number of times write queue was full causing retry
system.mem_ctrls.totGap                             0                       # Total gap between requests
system.mem_ctrls.readPktSize::0                     0                       # Read request sizes (log2)
system.mem_ctrls.readPktSize::1                     0                       # Read request sizes (log2)
system.mem_ctrls.readPktSize::2                     0                       # Read request sizes (log2)
system.mem_ctrls.readPktSize::3                     0                       # Read request sizes (log2)
system.mem_ctrls.readPktSize::4                     0                       # Read request sizes (log2)
system.mem_ctrls.readPktSize::5                     0                       # Read request sizes (log2)
system.mem_ctrls.readPktSize::6                     0                       # Read request sizes (log2)
system.mem_ctrls.writePktSize::0                    0                       # Write request sizes (log2)
system.mem_ctrls.writePktSize::1                    0                       # Write request sizes (log2)
system.mem_ctrls.writePktSize::2                    0                       # Write request sizes (log2)
system.mem_ctrls.writePktSize::3                    0                       # Write request sizes (log2)
system.mem_ctrls.writePktSize::4                    0                       # Write request sizes (log2)
system.mem_ctrls.writePktSize::5                    0                       # Write request sizes (log2)
system.mem_ctrls.writePktSize::6                    0                       # Write request sizes (log2)
system.mem_ctrls.rdQLenPdf::0                       0                       # What read queue length does an incoming req see
system.mem_ctrls.rdQLenPdf::1                       0                       # What read queue length does an incoming req see
system.mem_ctrls.rdQLenPdf::2                       0                       # What read queue length does an incoming req see
system.mem_ctrls.rdQLenPdf::3                       0                       # What read queue length does an incoming req see
system.mem_ctrls.rdQLenPdf::4                       0                       # What read queue length does an incoming req see
system.mem_ctrls.rdQLenPdf::5                       0                       # What read queue length does an incoming req see
system.mem_ctrls.rdQLenPdf::6                       0                       # What read queue length does an incoming req see
system.mem_ctrls.rdQLenPdf::7                       0                       # What read queue length does an incoming req see
system.mem_ctrls.rdQLenPdf::8                       0                       # What read queue length does an incoming req see
system.mem_ctrls.rdQLenPdf::9                       0                       # What read queue length does an incoming req see
system.mem_ctrls.rdQLenPdf::10                      0                       # What read queue length does an incoming req see
system.mem_ctrls.rdQLenPdf::11                      0                       # What read queue length does an incoming req see
system.mem_ctrls.rdQLenPdf::12                      0                       # What read queue length does an incoming req see
system.mem_ctrls.rdQLenPdf::13                      0                       # What read queue length does an incoming req see
system.mem_ctrls.rdQLenPdf::14                      0                       # What read queue length does an incoming req see
system.mem_ctrls.rdQLenPdf::15                      0                       # What read queue length does an incoming req see
system.mem_ctrls.rdQLenPdf::16                      0                       # What read queue length does an incoming req see
system.mem_ctrls.rdQLenPdf::17                      0                       # What read queue length does an incoming req see
system.mem_ctrls.rdQLenPdf::18                      0                       # What read queue length does an incoming req see
system.mem_ctrls.rdQLenPdf::19                      0                       # What read queue length does an incoming req see
system.mem_ctrls.rdQLenPdf::20                      0                       # What read queue length does an incoming req see
system.mem_ctrls.rdQLenPdf::21                      0                       # What read queue length does an incoming req see
system.mem_ctrls.rdQLenPdf::22                      0                       # What read queue length does an incoming req see
system.mem_ctrls.rdQLenPdf::23                      0                       # What read queue length does an incoming req see
system.mem_ctrls.rdQLenPdf::24                      0                       # What read queue length does an incoming req see
system.mem_ctrls.rdQLenPdf::25                      0                       # What read queue length does an incoming req see
system.mem_ctrls.rdQLenPdf::26                      0                       # What read queue length does an incoming req see
system.mem_ctrls.rdQLenPdf::27                      0                       # What read queue length does an incoming req see
system.mem_ctrls.rdQLenPdf::28                      0                       # What read queue length does an incoming req see
system.mem_ctrls.rdQLenPdf::29                      0                       # What read queue length does an incoming req see
system.mem_ctrls.rdQLenPdf::30                      0                       # What read queue length does an incoming req see
system.mem_ctrls.rdQLenPdf::31                      0                       # What read queue length does an incoming req see
system.mem_ctrls.wrQLenPdf::0                       0                       # What write queue length does an incoming req see
system.mem_ctrls.wrQLenPdf::1                       0                       # What write queue length does an incoming req see
system.mem_ctrls.wrQLenPdf::2                       0                       # What write queue length does an incoming req see
system.mem_ctrls.wrQLenPdf::3                       0                       # What write queue length does an incoming req see
system.mem_ctrls.wrQLenPdf::4                       0                       # What write queue length does an incoming req see
system.mem_ctrls.wrQLenPdf::5                       0                       # What write queue length does an incoming req see
system.mem_ctrls.wrQLenPdf::6                       0                       # What write queue length does an incoming req see
system.mem_ctrls.wrQLenPdf::7                       0                       # What write queue length does an incoming req see
system.mem_ctrls.wrQLenPdf::8                       0                       # What write queue length does an incoming req see
system.mem_ctrls.wrQLenPdf::9                       0                       # What write queue length does an incoming req see
system.mem_ctrls.wrQLenPdf::10                      0                       # What write queue length does an incoming req see
system.mem_ctrls.wrQLenPdf::11                      0                       # What write queue length does an incoming req see
system.mem_ctrls.wrQLenPdf::12                      0                       # What write queue length does an incoming req see
system.mem_ctrls.wrQLenPdf::13                      0                       # What write queue length does an incoming req see
system.mem_ctrls.wrQLenPdf::14                      0                       # What write queue length does an incoming req see
system.mem_ctrls.wrQLenPdf::15                      0                       # What write queue length does an incoming req see
system.mem_ctrls.wrQLenPdf::16                      0                       # What write queue length does an incoming req see
system.mem_ctrls.wrQLenPdf::17                      0                       # What write queue length does an incoming req see
system.mem_ctrls.wrQLenPdf::18                      0                       # What write queue length does an incoming req see
system.mem_ctrls.wrQLenPdf::19                      0                       # What write queue length does an incoming req see
system.mem_ctrls.wrQLenPdf::20                      0                       # What write queue length does an incoming req see
system.mem_ctrls.wrQLenPdf::21                      0                       # What write queue length does an incoming req see
system.mem_ctrls.wrQLenPdf::22                      0                       # What write queue length does an incoming req see
system.mem_ctrls.wrQLenPdf::23                      0                       # What write queue length does an incoming req see
system.mem_ctrls.wrQLenPdf::24                      0                       # What write queue length does an incoming req see
system.mem_ctrls.wrQLenPdf::25                      0                       # What write queue length does an incoming req see
system.mem_ctrls.wrQLenPdf::26                      0                       # What write queue length does an incoming req see
system.mem_ctrls.wrQLenPdf::27                      0                       # What write queue length does an incoming req see
system.mem_ctrls.wrQLenPdf::28                      0                       # What write queue length does an incoming req see
system.mem_ctrls.wrQLenPdf::29                      0                       # What write queue length does an incoming req see
system.mem_ctrls.wrQLenPdf::30                      0                       # What write queue length does an incoming req see
system.mem_ctrls.wrQLenPdf::31                      0                       # What write queue length does an incoming req see
system.mem_ctrls.wrQLenPdf::32                      0                       # What write queue length does an incoming req see
system.mem_ctrls.wrQLenPdf::33                      0                       # What write queue length does an incoming req see
system.mem_ctrls.wrQLenPdf::34                      0                       # What write queue length does an incoming req see
system.mem_ctrls.wrQLenPdf::35                      0                       # What write queue length does an incoming req see
system.mem_ctrls.wrQLenPdf::36                      0                       # What write queue length does an incoming req see
system.mem_ctrls.wrQLenPdf::37                      0                       # What write queue length does an incoming req see
system.mem_ctrls.wrQLenPdf::38                      0                       # What write queue length does an incoming req see
system.mem_ctrls.wrQLenPdf::39                      0                       # What write queue length does an incoming req see
system.mem_ctrls.wrQLenPdf::40                      0                       # What write queue length does an incoming req see
system.mem_ctrls.wrQLenPdf::41                      0                       # What write queue length does an incoming req see
system.mem_ctrls.wrQLenPdf::42                      0                       # What write queue length does an incoming req see
system.mem_ctrls.wrQLenPdf::43                      0                       # What write queue length does an incoming req see
system.mem_ctrls.wrQLenPdf::44                      0                       # What write queue length does an incoming req see
system.mem_ctrls.wrQLenPdf::45                      0                       # What write queue length does an incoming req see
system.mem_ctrls.wrQLenPdf::46                      0                       # What write queue length does an incoming req see
system.mem_ctrls.wrQLenPdf::47                      0                       # What write queue length does an incoming req see
system.mem_ctrls.wrQLenPdf::48                      0                       # What write queue length does an incoming req see
system.mem_ctrls.wrQLenPdf::49                      0                       # What write queue length does an incoming req see
system.mem_ctrls.wrQLenPdf::50                      0                       # What write queue length does an incoming req see
system.mem_ctrls.wrQLenPdf::51                      0                       # What write queue length does an incoming req see
system.mem_ctrls.wrQLenPdf::52                      0                       # What write queue length does an incoming req see
system.mem_ctrls.wrQLenPdf::53                      0                       # What write queue length does an incoming req see
system.mem_ctrls.wrQLenPdf::54                      0                       # What write queue length does an incoming req see
system.mem_ctrls.wrQLenPdf::55                      0                       # What write queue length does an incoming req see
system.mem_ctrls.wrQLenPdf::56                      0                       # What write queue length does an incoming req see
system.mem_ctrls.wrQLenPdf::57                      0                       # What write queue length does an incoming req see
system.mem_ctrls.wrQLenPdf::58                      0                       # What write queue length does an incoming req see
system.mem_ctrls.wrQLenPdf::59                      0                       # What write queue length does an incoming req see
system.mem_ctrls.wrQLenPdf::60                      0                       # What write queue length does an incoming req see
system.mem_ctrls.wrQLenPdf::61                      0                       # What write queue length does an incoming req see
system.mem_ctrls.wrQLenPdf::62                      0                       # What write queue length does an incoming req see
system.mem_ctrls.wrQLenPdf::63                      0                       # What write queue length does an incoming req see
system.mem_ctrls.totQLat                            0                       # Total ticks spent queuing
system.mem_ctrls.totMemAccLat                       0                       # Total ticks spent from burst creation until serviced by the DRAM
system.mem_ctrls.totBusLat                          0                       # Total ticks spent in databus transfers
system.mem_ctrls.avgQLat                          nan                       # Average queueing delay per DRAM burst
system.mem_ctrls.avgBusLat                        nan                       # Average bus latency per DRAM burst
system.mem_ctrls.avgMemAccLat                     nan                       # Average memory access latency per DRAM burst
system.mem_ctrls.avgRdBW                         0.00                       # Average DRAM read bandwidth in MiByte/s
system.mem_ctrls.avgWrBW                         0.00                       # Average achieved write bandwidth in MiByte/s
system.mem_ctrls.avgRdBWSys                      0.00                       # Average system read bandwidth in MiByte/s
system.mem_ctrls.avgWrBWSys                      0.00                       # Average system write bandwidth in MiByte/s
system.mem_ctrls.peakBW                      12800.00                       # Theoretical peak bandwidth in MiByte/s
system.mem_ctrls.busUtil                         0.00                       # Data bus utilization in percentage
system.mem_ctrls.busUtilRead                     0.00                       # Data bus utilization in percentage for reads
system.mem_ctrls.busUtilWrite                    0.00                       # Data bus utilization in percentage for writes
system.mem_ctrls.avgRdQLen                       0.00                       # Average read queue length when enqueuing
system.mem_ctrls.avgWrQLen                       0.00                       # Average write queue length when enqueuing
system.mem_ctrls.readRowHits                        0                       # Number of row buffer hits during reads
system.mem_ctrls.writeRowHits                       0                       # Number of row buffer hits during writes
system.mem_ctrls.readRowHitRate                   nan                       # Row buffer hit rate for reads
system.mem_ctrls.writeRowHitRate                  nan                       # Row buffer hit rate for writes
system.mem_ctrls.avgGap                           nan                       # Average gap between requests
system.mem_ctrls.pageHitRate                      nan                       # Row buffer hit rate, read and write combined
system.mem_ctrls.memoryStateTime::IDLE   2181995607500                       # Time in different power states
system.mem_ctrls.memoryStateTime::REF     75378680000                       # Time in different power states
system.mem_ctrls.memoryStateTime::PRE_PDN            0                       # Time in different power states
system.mem_ctrls.memoryStateTime::ACT               0                       # Time in different power states
system.mem_ctrls.memoryStateTime::ACT_PDN            0                       # Time in different power states
system.mem_ctrls.actEnergy::0                       0                       # Energy for activate commands per rank (pJ)
system.mem_ctrls.actEnergy::1                       0                       # Energy for activate commands per rank (pJ)
system.mem_ctrls.preEnergy::0                       0                       # Energy for precharge commands per rank (pJ)
system.mem_ctrls.preEnergy::1                       0                       # Energy for precharge commands per rank (pJ)
system.mem_ctrls.readEnergy::0                      0                       # Energy for read commands per rank (pJ)
system.mem_ctrls.readEnergy::1                      0                       # Energy for read commands per rank (pJ)
system.mem_ctrls.writeEnergy::0                     0                       # Energy for write commands per rank (pJ)
system.mem_ctrls.writeEnergy::1                     0                       # Energy for write commands per rank (pJ)
system.mem_ctrls.refreshEnergy::0        147440698080                       # Energy for refresh commands per rank (pJ)
system.mem_ctrls.refreshEnergy::1        147440698080                       # Energy for refresh commands per rank (pJ)
system.mem_ctrls.actBackEnergy::0         48832338330                       # Energy for active background per rank (pJ)
system.mem_ctrls.actBackEnergy::1         48832338330                       # Energy for active background per rank (pJ)
system.mem_ctrls.preBackEnergy::0        1311589179750                       # Energy for precharge background per rank (pJ)
system.mem_ctrls.preBackEnergy::1        1311589179750                       # Energy for precharge background per rank (pJ)
system.mem_ctrls.totalEnergy::0          1507862216160                       # Total energy per rank (pJ)
system.mem_ctrls.totalEnergy::1          1507862216160                       # Total energy per rank (pJ)
system.mem_ctrls.averagePower::0           667.971738                       # Core power per rank (mW)
system.mem_ctrls.averagePower::1           667.971738                       # Core power per rank (mW)
system.membus.trans_dist::ReadReq           129257759                       # Transaction distribution
system.membus.trans_dist::ReadResp          129559190                       # Transaction distribution
system.membus.trans_dist::WriteReq           10193243                       # Transaction distribution
system.membus.trans_dist::WriteResp          10193243                       # Transaction distribution
system.membus.trans_dist::LoadLockedReq        301431                       # Transaction distribution
system.membus.trans_dist::StoreCondReq         297011                       # Transaction distribution
system.membus.trans_dist::StoreCondResp        297011                       # Transaction distribution
system.membus.pkt_count_system.iobridge.master::system.mem_ctrls.port        88930                       # Packet count per connected master and slave (bytes)
system.membus.pkt_count_system.iobridge.master::total        88930                       # Packet count per connected master and slave (bytes)
system.membus.pkt_count_system.cpu0.icache_port::system.mem_ctrls.port    131332592                       # Packet count per connected master and slave (bytes)
system.membus.pkt_count_system.cpu0.icache_port::total    131332592                       # Packet count per connected master and slave (bytes)
system.membus.pkt_count_system.cpu0.dcache_port::system.bridge.slave        32970                       # Packet count per connected master and slave (bytes)
system.membus.pkt_count_system.cpu0.dcache_port::system.mem_ctrls.port     32163654                       # Packet count per connected master and slave (bytes)
system.membus.pkt_count_system.cpu0.dcache_port::total     32196624                       # Packet count per connected master and slave (bytes)
system.membus.pkt_count_system.cpu1.icache_port::system.mem_ctrls.port     10105048                       # Packet count per connected master and slave (bytes)
system.membus.pkt_count_system.cpu1.icache_port::total     10105048                       # Packet count per connected master and slave (bytes)
system.membus.pkt_count_system.cpu1.dcache_port::system.bridge.slave         5428                       # Packet count per connected master and slave (bytes)
system.membus.pkt_count_system.cpu1.dcache_port::system.mem_ctrls.port      3413300                       # Packet count per connected master and slave (bytes)
system.membus.pkt_count_system.cpu1.dcache_port::total      3418728                       # Packet count per connected master and slave (bytes)
system.membus.pkt_count_system.cpu2.icache_port::system.mem_ctrls.port     50576804                       # Packet count per connected master and slave (bytes)
system.membus.pkt_count_system.cpu2.icache_port::total     50576804                       # Packet count per connected master and slave (bytes)
system.membus.pkt_count_system.cpu2.dcache_port::system.bridge.slave        18518                       # Packet count per connected master and slave (bytes)
system.membus.pkt_count_system.cpu2.dcache_port::system.mem_ctrls.port     15924084                       # Packet count per connected master and slave (bytes)
system.membus.pkt_count_system.cpu2.dcache_port::total     15942602                       # Packet count per connected master and slave (bytes)
system.membus.pkt_count_system.cpu3.icache_port::system.mem_ctrls.port     27176068                       # Packet count per connected master and slave (bytes)
system.membus.pkt_count_system.cpu3.icache_port::total     27176068                       # Packet count per connected master and slave (bytes)
system.membus.pkt_count_system.cpu3.dcache_port::system.bridge.slave         8806                       # Packet count per connected master and slave (bytes)
system.membus.pkt_count_system.cpu3.dcache_port::system.mem_ctrls.port      9252686                       # Packet count per connected master and slave (bytes)
system.membus.pkt_count_system.cpu3.dcache_port::total      9261492                       # Packet count per connected master and slave (bytes)
system.membus.pkt_count::total              280098888                       # Packet count per connected master and slave (bytes)
system.membus.pkt_size_system.iobridge.master::system.mem_ctrls.port      2837640                       # Cumulative packet size per connected master and slave (bytes)
system.membus.pkt_size_system.iobridge.master::total      2837640                       # Cumulative packet size per connected master and slave (bytes)
system.membus.pkt_size_system.cpu0.icache_port::system.mem_ctrls.port    262665184                       # Cumulative packet size per connected master and slave (bytes)
system.membus.pkt_size_system.cpu0.icache_port::total    262665184                       # Cumulative packet size per connected master and slave (bytes)
system.membus.pkt_size_system.cpu0.dcache_port::system.bridge.slave        58101                       # Cumulative packet size per connected master and slave (bytes)
system.membus.pkt_size_system.cpu0.dcache_port::system.mem_ctrls.port    115687312                       # Cumulative packet size per connected master and slave (bytes)
system.membus.pkt_size_system.cpu0.dcache_port::total    115745413                       # Cumulative packet size per connected master and slave (bytes)
system.membus.pkt_size_system.cpu1.icache_port::system.mem_ctrls.port     20210096                       # Cumulative packet size per connected master and slave (bytes)
system.membus.pkt_size_system.cpu1.icache_port::total     20210096                       # Cumulative packet size per connected master and slave (bytes)
system.membus.pkt_size_system.cpu1.dcache_port::system.bridge.slave        21596                       # Cumulative packet size per connected master and slave (bytes)
system.membus.pkt_size_system.cpu1.dcache_port::system.mem_ctrls.port     12681780                       # Cumulative packet size per connected master and slave (bytes)
system.membus.pkt_size_system.cpu1.dcache_port::total     12703376                       # Cumulative packet size per connected master and slave (bytes)
system.membus.pkt_size_system.cpu2.icache_port::system.mem_ctrls.port    101153608                       # Cumulative packet size per connected master and slave (bytes)
system.membus.pkt_size_system.cpu2.icache_port::total    101153608                       # Cumulative packet size per connected master and slave (bytes)
system.membus.pkt_size_system.cpu2.dcache_port::system.bridge.slave        51032                       # Cumulative packet size per connected master and slave (bytes)
system.membus.pkt_size_system.cpu2.dcache_port::system.mem_ctrls.port     60152592                       # Cumulative packet size per connected master and slave (bytes)
system.membus.pkt_size_system.cpu2.dcache_port::total     60203624                       # Cumulative packet size per connected master and slave (bytes)
system.membus.pkt_size_system.cpu3.icache_port::system.mem_ctrls.port     54352136                       # Cumulative packet size per connected master and slave (bytes)
system.membus.pkt_size_system.cpu3.icache_port::total     54352136                       # Cumulative packet size per connected master and slave (bytes)
system.membus.pkt_size_system.cpu3.dcache_port::system.bridge.slave        32208                       # Cumulative packet size per connected master and slave (bytes)
system.membus.pkt_size_system.cpu3.dcache_port::system.mem_ctrls.port     34485852                       # Cumulative packet size per connected master and slave (bytes)
system.membus.pkt_size_system.cpu3.dcache_port::total     34518060                       # Cumulative packet size per connected master and slave (bytes)
system.membus.pkt_size::total               664389137                       # Cumulative packet size per connected master and slave (bytes)
system.membus.snoops                                0                       # Total snoops (count)
system.membus.snoop_fanout::samples         140016583                       # Request fanout histogram
system.membus.snoop_fanout::mean             3.783048                       # Request fanout histogram
system.membus.snoop_fanout::stdev            0.412170                       # Request fanout histogram
system.membus.snoop_fanout::underflows              0      0.00%      0.00% # Request fanout histogram
system.membus.snoop_fanout::0                       0      0.00%      0.00% # Request fanout histogram
system.membus.snoop_fanout::1                       0      0.00%      0.00% # Request fanout histogram
system.membus.snoop_fanout::2                       0      0.00%      0.00% # Request fanout histogram
system.membus.snoop_fanout::3                30376862     21.70%     21.70% # Request fanout histogram
system.membus.snoop_fanout::4               109639721     78.30%    100.00% # Request fanout histogram
system.membus.snoop_fanout::overflows               0      0.00%    100.00% # Request fanout histogram
system.membus.snoop_fanout::min_value               3                       # Request fanout histogram
system.membus.snoop_fanout::max_value               4                       # Request fanout histogram
system.membus.snoop_fanout::total           140016583                       # Request fanout histogram
system.disk0.dma_read_full_pages                    0                       # Number of full page size DMA reads (not PRD).
system.disk0.dma_read_bytes                      4096                       # Number of bytes transfered via DMA reads (not PRD).
system.disk0.dma_read_txs                           1                       # Number of DMA read transactions (not PRD).
system.disk0.dma_write_full_pages                 326                       # Number of full page size DMA writes.
system.disk0.dma_write_bytes                  2824192                       # Number of bytes transfered via DMA writes.
system.disk0.dma_write_txs                        365                       # Number of DMA write transactions.
system.disk2.dma_read_full_pages                    0                       # Number of full page size DMA reads (not PRD).
system.disk2.dma_read_bytes                         0                       # Number of bytes transfered via DMA reads (not PRD).
system.disk2.dma_read_txs                           0                       # Number of DMA read transactions (not PRD).
system.disk2.dma_write_full_pages                   1                       # Number of full page size DMA writes.
system.disk2.dma_write_bytes                     8192                       # Number of bytes transfered via DMA writes.
system.disk2.dma_write_txs                          1                       # Number of DMA write transactions.
system.cpu_voltage_domain.voltage                   1                       # Voltage in Volts
system.cpu_clk_domain.clock                       500                       # Clock period in ticks
system.cpu0.dtb.fetch_hits                          0                       # ITB hits
system.cpu0.dtb.fetch_misses                        0                       # ITB misses
system.cpu0.dtb.fetch_acv                           0                       # ITB acv
system.cpu0.dtb.fetch_accesses                      0                       # ITB accesses
system.cpu0.dtb.read_hits                    11230878                       # DTB read hits
system.cpu0.dtb.read_misses                      3143                       # DTB read misses
system.cpu0.dtb.read_acv                           32                       # DTB read access violations
system.cpu0.dtb.read_accesses                  187936                       # DTB read accesses
system.cpu0.dtb.write_hits                    4848363                       # DTB write hits
system.cpu0.dtb.write_misses                      365                       # DTB write misses
system.cpu0.dtb.write_acv                          50                       # DTB write access violations
system.cpu0.dtb.write_accesses                  83324                       # DTB write accesses
system.cpu0.dtb.data_hits                    16079241                       # DTB hits
system.cpu0.dtb.data_misses                      3508                       # DTB misses
system.cpu0.dtb.data_acv                           82                       # DTB access violations
system.cpu0.dtb.data_accesses                  271260                       # DTB accesses
system.cpu0.itb.fetch_hits                    2269459                       # ITB hits
system.cpu0.itb.fetch_misses                     1293                       # ITB misses
system.cpu0.itb.fetch_acv                           0                       # ITB acv
system.cpu0.itb.fetch_accesses                2270752                       # ITB accesses
system.cpu0.itb.read_hits                           0                       # DTB read hits
system.cpu0.itb.read_misses                         0                       # DTB read misses
system.cpu0.itb.read_acv                            0                       # DTB read access violations
system.cpu0.itb.read_accesses                       0                       # DTB read accesses
system.cpu0.itb.write_hits                          0                       # DTB write hits
system.cpu0.itb.write_misses                        0                       # DTB write misses
system.cpu0.itb.write_acv                           0                       # DTB write access violations
system.cpu0.itb.write_accesses                      0                       # DTB write accesses
system.cpu0.itb.data_hits                           0                       # DTB hits
system.cpu0.itb.data_misses                         0                       # DTB misses
system.cpu0.itb.data_acv                            0                       # DTB access violations
system.cpu0.itb.data_accesses                       0                       # DTB accesses
system.cpu0.numCycles                      4514768368                       # number of cpu cycles simulated
system.cpu0.numWorkItemsStarted                     0                       # number of work items this cpu started
system.cpu0.numWorkItemsCompleted                   0                       # number of work items this cpu completed
system.cpu0.committedInsts                   65662706                       # Number of instructions committed
system.cpu0.committedOps                     65662706                       # Number of ops (including micro ops) committed
system.cpu0.num_int_alu_accesses             63460675                       # Number of integer alu accesses
system.cpu0.num_fp_alu_accesses                190330                       # Number of float alu accesses
system.cpu0.num_func_calls                    2076489                       # number of times a function call or return occured
system.cpu0.num_conditional_control_insts      8720598                       # number of instructions that are conditional controls
system.cpu0.num_int_insts                    63460675                       # number of integer instructions
system.cpu0.num_fp_insts                       190330                       # number of float instructions
system.cpu0.num_int_register_reads           86715677                       # number of times the integer registers were read
system.cpu0.num_int_register_writes          48999578                       # number of times the integer registers were written
system.cpu0.num_fp_register_reads               73745                       # number of times the floating registers were read
system.cpu0.num_fp_register_writes              75153                       # number of times the floating registers were written
system.cpu0.num_mem_refs                     16105854                       # number of memory refs
system.cpu0.num_load_insts                   11246688                       # Number of load instructions
system.cpu0.num_store_insts                   4859166                       # Number of store instructions
system.cpu0.num_idle_cycles              4449107584.560236                       # Number of idle cycles
system.cpu0.num_busy_cycles              65660783.439764                       # Number of busy cycles
system.cpu0.not_idle_fraction                0.014544                       # Percentage of non-idle cycles
system.cpu0.idle_fraction                    0.985456                       # Percentage of idle cycles
system.cpu0.Branches                         11194471                       # Number of branches fetched
system.cpu0.op_class::No_OpClass              1392158      2.12%      2.12% # Class of executed instruction
system.cpu0.op_class::IntAlu                 47157348     71.81%     73.93% # Class of executed instruction
system.cpu0.op_class::IntMult                  115905      0.18%     74.11% # Class of executed instruction
system.cpu0.op_class::IntDiv                        0      0.00%     74.11% # Class of executed instruction
system.cpu0.op_class::FloatAdd                  59923      0.09%     74.20% # Class of executed instruction
system.cpu0.op_class::FloatCmp                      0      0.00%     74.20% # Class of executed instruction
system.cpu0.op_class::FloatCvt                      0      0.00%     74.20% # Class of executed instruction
system.cpu0.op_class::FloatMult                     0      0.00%     74.20% # Class of executed instruction
system.cpu0.op_class::FloatDiv                   1500      0.00%     74.20% # Class of executed instruction
system.cpu0.op_class::FloatSqrt                     0      0.00%     74.20% # Class of executed instruction
system.cpu0.op_class::SimdAdd                       0      0.00%     74.20% # Class of executed instruction
system.cpu0.op_class::SimdAddAcc                    0      0.00%     74.20% # Class of executed instruction
system.cpu0.op_class::SimdAlu                       0      0.00%     74.20% # Class of executed instruction
system.cpu0.op_class::SimdCmp                       0      0.00%     74.20% # Class of executed instruction
system.cpu0.op_class::SimdCvt                       0      0.00%     74.20% # Class of executed instruction
system.cpu0.op_class::SimdMisc                      0      0.00%     74.20% # Class of executed instruction
system.cpu0.op_class::SimdMult                      0      0.00%     74.20% # Class of executed instruction
system.cpu0.op_class::SimdMultAcc                   0      0.00%     74.20% # Class of executed instruction
system.cpu0.op_class::SimdShift                     0      0.00%     74.20% # Class of executed instruction
system.cpu0.op_class::SimdShiftAcc                  0      0.00%     74.20% # Class of executed instruction
system.cpu0.op_class::SimdSqrt                      0      0.00%     74.20% # Class of executed instruction
system.cpu0.op_class::SimdFloatAdd                  0      0.00%     74.20% # Class of executed instruction
system.cpu0.op_class::SimdFloatAlu                  0      0.00%     74.20% # Class of executed instruction
system.cpu0.op_class::SimdFloatCmp                  0      0.00%     74.20% # Class of executed instruction
system.cpu0.op_class::SimdFloatCvt                  0      0.00%     74.20% # Class of executed instruction
system.cpu0.op_class::SimdFloatDiv                  0      0.00%     74.20% # Class of executed instruction
system.cpu0.op_class::SimdFloatMisc                 0      0.00%     74.20% # Class of executed instruction
system.cpu0.op_class::SimdFloatMult                 0      0.00%     74.20% # Class of executed instruction
system.cpu0.op_class::SimdFloatMultAcc              0      0.00%     74.20% # Class of executed instruction
system.cpu0.op_class::SimdFloatSqrt                 0      0.00%     74.20% # Class of executed instruction
system.cpu0.op_class::MemRead                11493002     17.50%     91.71% # Class of executed instruction
system.cpu0.op_class::MemWrite                4875739      7.43%     99.13% # Class of executed instruction
system.cpu0.op_class::IprAccess                570721      0.87%    100.00% # Class of executed instruction
system.cpu0.op_class::InstPrefetch                  0      0.00%    100.00% # Class of executed instruction
system.cpu0.op_class::total                  65666296                       # Class of executed instruction
system.cpu0.kern.inst.arm                           0                       # number of arm instructions executed
system.cpu0.kern.inst.quiesce                    6905                       # number of quiesce instructions executed
system.cpu0.kern.inst.hwrei                    131341                       # number of hwrei instructions executed
system.cpu0.kern.ipl_count::0                   45496     38.50%     38.50% # number of times we switched to this ipl
system.cpu0.kern.ipl_count::21                    234      0.20%     38.70% # number of times we switched to this ipl
system.cpu0.kern.ipl_count::22                   2305      1.95%     40.65% # number of times we switched to this ipl
system.cpu0.kern.ipl_count::30                    758      0.64%     41.29% # number of times we switched to this ipl
system.cpu0.kern.ipl_count::31                  69371     58.71%    100.00% # number of times we switched to this ipl
system.cpu0.kern.ipl_count::total              118164                       # number of times we switched to this ipl
system.cpu0.kern.ipl_good::0                    45376     48.64%     48.64% # number of times we switched to this ipl from a different ipl
system.cpu0.kern.ipl_good::21                     234      0.25%     48.89% # number of times we switched to this ipl from a different ipl
system.cpu0.kern.ipl_good::22                    2305      2.47%     51.36% # number of times we switched to this ipl from a different ipl
system.cpu0.kern.ipl_good::30                     758      0.81%     52.17% # number of times we switched to this ipl from a different ipl
system.cpu0.kern.ipl_good::31                   44618     47.83%    100.00% # number of times we switched to this ipl from a different ipl
system.cpu0.kern.ipl_good::total                93291                       # number of times we switched to this ipl from a different ipl
system.cpu0.kern.ipl_ticks::0            2240974724000     99.27%     99.27% # number of cycles we spent at this ipl
system.cpu0.kern.ipl_ticks::21               18486000      0.00%     99.27% # number of cycles we spent at this ipl
system.cpu0.kern.ipl_ticks::22              112945000      0.01%     99.28% # number of cycles we spent at this ipl
system.cpu0.kern.ipl_ticks::30               85845000      0.00%     99.28% # number of cycles we spent at this ipl
system.cpu0.kern.ipl_ticks::31            16188455000      0.72%    100.00% # number of cycles we spent at this ipl
system.cpu0.kern.ipl_ticks::total        2257380455000                       # number of cycles we spent at this ipl
system.cpu0.kern.ipl_used::0                 0.997362                       # fraction of swpipl calls that actually changed the ipl
system.cpu0.kern.ipl_used::21                       1                       # fraction of swpipl calls that actually changed the ipl
system.cpu0.kern.ipl_used::22                       1                       # fraction of swpipl calls that actually changed the ipl
system.cpu0.kern.ipl_used::30                       1                       # fraction of swpipl calls that actually changed the ipl
system.cpu0.kern.ipl_used::31                0.643179                       # fraction of swpipl calls that actually changed the ipl
system.cpu0.kern.ipl_used::total             0.789504                       # fraction of swpipl calls that actually changed the ipl
system.cpu0.kern.syscall::2                         2      2.11%      2.11% # number of syscalls executed
system.cpu0.kern.syscall::3                         9      9.47%     11.58% # number of syscalls executed
system.cpu0.kern.syscall::4                         1      1.05%     12.63% # number of syscalls executed
system.cpu0.kern.syscall::6                        11     11.58%     24.21% # number of syscalls executed
system.cpu0.kern.syscall::17                        5      5.26%     29.47% # number of syscalls executed
system.cpu0.kern.syscall::19                        1      1.05%     30.53% # number of syscalls executed
system.cpu0.kern.syscall::23                        2      2.11%     32.63% # number of syscalls executed
system.cpu0.kern.syscall::24                        2      2.11%     34.74% # number of syscalls executed
system.cpu0.kern.syscall::33                        3      3.16%     37.89% # number of syscalls executed
system.cpu0.kern.syscall::41                        2      2.11%     40.00% # number of syscalls executed
system.cpu0.kern.syscall::45                       15     15.79%     55.79% # number of syscalls executed
system.cpu0.kern.syscall::47                        2      2.11%     57.89% # number of syscalls executed
system.cpu0.kern.syscall::48                        2      2.11%     60.00% # number of syscalls executed
system.cpu0.kern.syscall::54                        3      3.16%     63.16% # number of syscalls executed
system.cpu0.kern.syscall::59                        1      1.05%     64.21% # number of syscalls executed
system.cpu0.kern.syscall::71                       23     24.21%     88.42% # number of syscalls executed
system.cpu0.kern.syscall::74                        7      7.37%     95.79% # number of syscalls executed
system.cpu0.kern.syscall::92                        1      1.05%     96.84% # number of syscalls executed
system.cpu0.kern.syscall::132                       2      2.11%     98.95% # number of syscalls executed
system.cpu0.kern.syscall::147                       1      1.05%    100.00% # number of syscalls executed
system.cpu0.kern.syscall::total                    95                       # number of syscalls executed
system.cpu0.kern.callpal::cserve                    1      0.00%      0.00% # number of callpals executed
system.cpu0.kern.callpal::wripir                 1029      0.84%      0.84% # number of callpals executed
system.cpu0.kern.callpal::wrmces                    1      0.00%      0.84% # number of callpals executed
system.cpu0.kern.callpal::wrfen                     1      0.00%      0.84% # number of callpals executed
system.cpu0.kern.callpal::wrvptptr                  1      0.00%      0.84% # number of callpals executed
system.cpu0.kern.callpal::swpctx                 2098      1.70%      2.54% # number of callpals executed
system.cpu0.kern.callpal::tbi                      22      0.02%      2.56% # number of callpals executed
system.cpu0.kern.callpal::wrent                     7      0.01%      2.57% # number of callpals executed
system.cpu0.kern.callpal::swpipl               110914     90.06%     92.62% # number of callpals executed
system.cpu0.kern.callpal::rdps                   4943      4.01%     96.64% # number of callpals executed
system.cpu0.kern.callpal::wrkgp                     1      0.00%     96.64% # number of callpals executed
system.cpu0.kern.callpal::wrusp                     3      0.00%     96.64% # number of callpals executed
system.cpu0.kern.callpal::rdusp                     4      0.00%     96.64% # number of callpals executed
system.cpu0.kern.callpal::whami                     2      0.00%     96.64% # number of callpals executed
system.cpu0.kern.callpal::rti                    3952      3.21%     99.85% # number of callpals executed
system.cpu0.kern.callpal::callsys                 141      0.11%     99.97% # number of callpals executed
system.cpu0.kern.callpal::imb                      39      0.03%    100.00% # number of callpals executed
system.cpu0.kern.callpal::total                123159                       # number of callpals executed
system.cpu0.kern.mode_switch::kernel             5951                       # number of protection mode switches
system.cpu0.kern.mode_switch::user                545                       # number of protection mode switches
system.cpu0.kern.mode_switch::idle                  0                       # number of protection mode switches
system.cpu0.kern.mode_good::kernel                544                      
system.cpu0.kern.mode_good::user                  545                      
system.cpu0.kern.mode_good::idle                    0                      
system.cpu0.kern.mode_switch_good::kernel     0.091413                       # fraction of useful protection mode switches
system.cpu0.kern.mode_switch_good::user             1                       # fraction of useful protection mode switches
system.cpu0.kern.mode_switch_good::idle           nan                       # fraction of useful protection mode switches
system.cpu0.kern.mode_switch_good::total     0.167642                       # fraction of useful protection mode switches
system.cpu0.kern.mode_ticks::kernel      2256951173000     99.98%     99.98% # number of ticks spent at the given mode
system.cpu0.kern.mode_ticks::user           429281000      0.02%    100.00% # number of ticks spent at the given mode
system.cpu0.kern.mode_ticks::idle                   0      0.00%    100.00% # number of ticks spent at the given mode
system.cpu0.kern.swap_context                    2099                       # number of times the context was actually changed
system.tsunami.ethernet.descDMAReads                0                       # Number of descriptors the device read w/ DMA
system.tsunami.ethernet.descDMAWrites               0                       # Number of descriptors the device wrote w/ DMA
system.tsunami.ethernet.descDmaReadBytes            0                       # number of descriptor bytes read w/ DMA
system.tsunami.ethernet.descDmaWriteBytes            0                       # number of descriptor bytes write w/ DMA
system.tsunami.ethernet.postedSwi                   0                       # number of software interrupts posted to CPU
system.tsunami.ethernet.coalescedSwi              nan                       # average number of Swi's coalesced into each post
system.tsunami.ethernet.totalSwi                    0                       # total number of Swi written to ISR
system.tsunami.ethernet.postedRxIdle                0                       # number of rxIdle interrupts posted to CPU
system.tsunami.ethernet.coalescedRxIdle           nan                       # average number of RxIdle's coalesced into each post
system.tsunami.ethernet.totalRxIdle                 0                       # total number of RxIdle written to ISR
system.tsunami.ethernet.postedRxOk                  0                       # number of RxOk interrupts posted to CPU
system.tsunami.ethernet.coalescedRxOk             nan                       # average number of RxOk's coalesced into each post
system.tsunami.ethernet.totalRxOk                   0                       # total number of RxOk written to ISR
system.tsunami.ethernet.postedRxDesc                0                       # number of RxDesc interrupts posted to CPU
system.tsunami.ethernet.coalescedRxDesc           nan                       # average number of RxDesc's coalesced into each post
system.tsunami.ethernet.totalRxDesc                 0                       # total number of RxDesc written to ISR
system.tsunami.ethernet.postedTxOk                  0                       # number of TxOk interrupts posted to CPU
system.tsunami.ethernet.coalescedTxOk             nan                       # average number of TxOk's coalesced into each post
system.tsunami.ethernet.totalTxOk                   0                       # total number of TxOk written to ISR
system.tsunami.ethernet.postedTxIdle                0                       # number of TxIdle interrupts posted to CPU
system.tsunami.ethernet.coalescedTxIdle           nan                       # average number of TxIdle's coalesced into each post
system.tsunami.ethernet.totalTxIdle                 0                       # total number of TxIdle written to ISR
system.tsunami.ethernet.postedTxDesc                0                       # number of TxDesc interrupts posted to CPU
system.tsunami.ethernet.coalescedTxDesc           nan                       # average number of TxDesc's coalesced into each post
system.tsunami.ethernet.totalTxDesc                 0                       # total number of TxDesc written to ISR
system.tsunami.ethernet.postedRxOrn                 0                       # number of RxOrn posted to CPU
system.tsunami.ethernet.coalescedRxOrn            nan                       # average number of RxOrn's coalesced into each post
system.tsunami.ethernet.totalRxOrn                  0                       # total number of RxOrn written to ISR
system.tsunami.ethernet.coalescedTotal            nan                       # average number of interrupts coalesced into each post
system.tsunami.ethernet.postedInterrupts            0                       # number of posts to CPU
system.tsunami.ethernet.droppedPackets              0                       # number of packets dropped
system.iobus.trans_dist::ReadReq                 8109                       # Transaction distribution
system.iobus.trans_dist::ReadResp                8109                       # Transaction distribution
system.iobus.trans_dist::WriteReq               69217                       # Transaction distribution
system.iobus.trans_dist::WriteResp              69217                       # Transaction distribution
system.iobus.pkt_count_system.bridge.master::system.tsunami.cchip.pio        32400                       # Packet count per connected master and slave (bytes)
system.iobus.pkt_count_system.bridge.master::system.tsunami.pchip.pio          276                       # Packet count per connected master and slave (bytes)
system.iobus.pkt_count_system.bridge.master::system.tsunami.fake_sm_chip.pio           20                       # Packet count per connected master and slave (bytes)
system.iobus.pkt_count_system.bridge.master::system.tsunami.fake_uart4.pio           20                       # Packet count per connected master and slave (bytes)
system.iobus.pkt_count_system.bridge.master::system.tsunami.fake_ata0.pio           22                       # Packet count per connected master and slave (bytes)
system.iobus.pkt_count_system.bridge.master::system.tsunami.fake_ata1.pio           22                       # Packet count per connected master and slave (bytes)
system.iobus.pkt_count_system.bridge.master::system.tsunami.io.pio         1968                       # Packet count per connected master and slave (bytes)
system.iobus.pkt_count_system.bridge.master::system.tsunami.uart.pio        20948                       # Packet count per connected master and slave (bytes)
system.iobus.pkt_count_system.bridge.master::system.tsunami.backdoor.pio         3598                       # Packet count per connected master and slave (bytes)
system.iobus.pkt_count_system.bridge.master::system.tsunami.ide.pio         5808                       # Packet count per connected master and slave (bytes)
system.iobus.pkt_count_system.bridge.master::system.tsunami.ide-pciconf          284                       # Packet count per connected master and slave (bytes)
system.iobus.pkt_count_system.bridge.master::system.tsunami.ethernet.pio          100                       # Packet count per connected master and slave (bytes)
system.iobus.pkt_count_system.bridge.master::system.tsunami.ethernet-pciconf          196                       # Packet count per connected master and slave (bytes)
system.iobus.pkt_count_system.bridge.master::system.tsunami.pciconfig.pio           60                       # Packet count per connected master and slave (bytes)
system.iobus.pkt_count_system.bridge.master::total        65722                       # Packet count per connected master and slave (bytes)
system.iobus.pkt_count_system.tsunami.ide.dma::system.iobridge.slave        88930                       # Packet count per connected master and slave (bytes)
system.iobus.pkt_count_system.tsunami.ide.dma::total        88930                       # Packet count per connected master and slave (bytes)
system.iobus.pkt_count::total                  154652                       # Packet count per connected master and slave (bytes)
system.iobus.pkt_size_system.bridge.master::system.tsunami.cchip.pio       129600                       # Cumulative packet size per connected master and slave (bytes)
system.iobus.pkt_size_system.bridge.master::system.tsunami.pchip.pio         1104                       # Cumulative packet size per connected master and slave (bytes)
system.iobus.pkt_size_system.bridge.master::system.tsunami.fake_sm_chip.pio           10                       # Cumulative packet size per connected master and slave (bytes)
system.iobus.pkt_size_system.bridge.master::system.tsunami.fake_uart4.pio           10                       # Cumulative packet size per connected master and slave (bytes)
system.iobus.pkt_size_system.bridge.master::system.tsunami.fake_ata0.pio           11                       # Cumulative packet size per connected master and slave (bytes)
system.iobus.pkt_size_system.bridge.master::system.tsunami.fake_ata1.pio           11                       # Cumulative packet size per connected master and slave (bytes)
system.iobus.pkt_size_system.bridge.master::system.tsunami.io.pio         2622                       # Cumulative packet size per connected master and slave (bytes)
system.iobus.pkt_size_system.bridge.master::system.tsunami.uart.pio        10474                       # Cumulative packet size per connected master and slave (bytes)
system.iobus.pkt_size_system.bridge.master::system.tsunami.backdoor.pio        14372                       # Cumulative packet size per connected master and slave (bytes)
system.iobus.pkt_size_system.bridge.master::system.tsunami.ide.pio         3692                       # Cumulative packet size per connected master and slave (bytes)
system.iobus.pkt_size_system.bridge.master::system.tsunami.ide-pciconf          400                       # Cumulative packet size per connected master and slave (bytes)
system.iobus.pkt_size_system.bridge.master::system.tsunami.ethernet.pio          200                       # Cumulative packet size per connected master and slave (bytes)
system.iobus.pkt_size_system.bridge.master::system.tsunami.ethernet-pciconf          311                       # Cumulative packet size per connected master and slave (bytes)
system.iobus.pkt_size_system.bridge.master::system.tsunami.pciconfig.pio          120                       # Cumulative packet size per connected master and slave (bytes)
system.iobus.pkt_size_system.bridge.master::total       162937                       # Cumulative packet size per connected master and slave (bytes)
system.iobus.pkt_size_system.tsunami.ide.dma::system.iobridge.slave      2837640                       # Cumulative packet size per connected master and slave (bytes)
system.iobus.pkt_size_system.tsunami.ide.dma::total      2837640                       # Cumulative packet size per connected master and slave (bytes)
system.iobus.pkt_size::total                  3000577                       # Cumulative packet size per connected master and slave (bytes)
system.cpu1.dtb.fetch_hits                          0                       # ITB hits
system.cpu1.dtb.fetch_misses                        0                       # ITB misses
system.cpu1.dtb.fetch_acv                           0                       # ITB acv
system.cpu1.dtb.fetch_accesses                      0                       # ITB accesses
system.cpu1.dtb.read_hits                     1086284                       # DTB read hits
system.cpu1.dtb.read_misses                      1986                       # DTB read misses
system.cpu1.dtb.read_acv                           30                       # DTB read access violations
system.cpu1.dtb.read_accesses                   91119                       # DTB read accesses
system.cpu1.dtb.write_hits                     619272                       # DTB write hits
system.cpu1.dtb.write_misses                      191                       # DTB write misses
system.cpu1.dtb.write_acv                          31                       # DTB write access violations
system.cpu1.dtb.write_accesses                  42218                       # DTB write accesses
system.cpu1.dtb.data_hits                     1705556                       # DTB hits
system.cpu1.dtb.data_misses                      2177                       # DTB misses
system.cpu1.dtb.data_acv                           61                       # DTB access violations
system.cpu1.dtb.data_accesses                  133337                       # DTB accesses
system.cpu1.itb.fetch_hits                     975595                       # ITB hits
system.cpu1.itb.fetch_misses                      930                       # ITB misses
system.cpu1.itb.fetch_acv                           1                       # ITB acv
system.cpu1.itb.fetch_accesses                 976525                       # ITB accesses
system.cpu1.itb.read_hits                           0                       # DTB read hits
system.cpu1.itb.read_misses                         0                       # DTB read misses
system.cpu1.itb.read_acv                            0                       # DTB read access violations
system.cpu1.itb.read_accesses                       0                       # DTB read accesses
system.cpu1.itb.write_hits                          0                       # DTB write hits
system.cpu1.itb.write_misses                        0                       # DTB write misses
system.cpu1.itb.write_acv                           0                       # DTB write access violations
system.cpu1.itb.write_accesses                      0                       # DTB write accesses
system.cpu1.itb.data_hits                           0                       # DTB hits
system.cpu1.itb.data_misses                         0                       # DTB misses
system.cpu1.itb.data_acv                            0                       # DTB access violations
system.cpu1.itb.data_accesses                       0                       # DTB accesses
system.cpu1.numCycles                      4514350906                       # number of cpu cycles simulated
system.cpu1.numWorkItemsStarted                     0                       # number of work items this cpu started
system.cpu1.numWorkItemsCompleted                   0                       # number of work items this cpu completed
system.cpu1.committedInsts                    5050286                       # Number of instructions committed
system.cpu1.committedOps                      5050286                       # Number of ops (including micro ops) committed
system.cpu1.num_int_alu_accesses              4839249                       # Number of integer alu accesses
system.cpu1.num_fp_alu_accesses                 20113                       # Number of float alu accesses
system.cpu1.num_func_calls                     186162                       # number of times a function call or return occured
system.cpu1.num_conditional_control_insts       423299                       # number of instructions that are conditional controls
system.cpu1.num_int_insts                     4839249                       # number of integer instructions
system.cpu1.num_fp_insts                        20113                       # number of float instructions
system.cpu1.num_int_register_reads            6590249                       # number of times the integer registers were read
system.cpu1.num_int_register_writes           3746133                       # number of times the integer registers were written
system.cpu1.num_fp_register_reads               11482                       # number of times the floating registers were read
system.cpu1.num_fp_register_writes              11486                       # number of times the floating registers were written
system.cpu1.num_mem_refs                      1714387                       # number of memory refs
system.cpu1.num_load_insts                    1091288                       # Number of load instructions
system.cpu1.num_store_insts                    623099                       # Number of store instructions
system.cpu1.num_idle_cycles              4509300400.316403                       # Number of idle cycles
system.cpu1.num_busy_cycles              5050505.683597                       # Number of busy cycles
system.cpu1.not_idle_fraction                0.001119                       # Percentage of non-idle cycles
system.cpu1.idle_fraction                    0.998881                       # Percentage of idle cycles
system.cpu1.Branches                           698573                       # Number of branches fetched
system.cpu1.op_class::No_OpClass                46282      0.92%      0.92% # Class of executed instruction
system.cpu1.op_class::IntAlu                  3038160     60.13%     61.05% # Class of executed instruction
system.cpu1.op_class::IntMult                   15506      0.31%     61.35% # Class of executed instruction
system.cpu1.op_class::IntDiv                        0      0.00%     61.35% # Class of executed instruction
system.cpu1.op_class::FloatAdd                   3554      0.07%     61.42% # Class of executed instruction
system.cpu1.op_class::FloatCmp                      0      0.00%     61.42% # Class of executed instruction
system.cpu1.op_class::FloatCvt                      0      0.00%     61.42% # Class of executed instruction
system.cpu1.op_class::FloatMult                     0      0.00%     61.42% # Class of executed instruction
system.cpu1.op_class::FloatDiv                    612      0.01%     61.44% # Class of executed instruction
[...]
system.cpu2.op_class::SimdFloatDiv                  0      0.00%     54.59% # Class of executed instruction
system.cpu2.op_class::SimdFloatMisc                 0      0.00%     54.59% # Class of executed instruction
system.cpu2.op_class::SimdFloatMult                 0      0.00%     54.59% # Class of executed instruction
system.cpu2.op_class::SimdFloatMultAcc              0      0.00%     54.59% # Class of executed instruction
system.cpu2.op_class::SimdFloatSqrt                 0      0.00%     54.59% # Class of executed instruction
system.cpu2.op_class::MemRead                      91     24.59%     79.19% # Class of executed instruction
system.cpu2.op_class::MemWrite                     60     16.22%     95.41% # Class of executed instruction
system.cpu2.op_class::IprAccess                    17      4.59%    100.00% # Class of executed instruction
system.cpu2.op_class::InstPrefetch                  0      0.00%    100.00% # Class of executed instruction
system.cpu2.op_class::total                       370                       # Class of executed instruction
system.cpu2.kern.inst.arm                           0                       # number of arm instructions executed
system.cpu2.kern.inst.quiesce                       1                       # number of quiesce instructions executed
system.cpu2.kern.inst.hwrei                         2                       # number of hwrei instructions executed
system.cpu2.kern.ipl_count::0                       1     50.00%     50.00% # number of times we switched to this ipl
system.cpu2.kern.ipl_count::30                      1     50.00%    100.00% # number of times we switched to this ipl
system.cpu2.kern.ipl_count::total                   2                       # number of times we switched to this ipl
system.cpu2.kern.ipl_good::0                        1     50.00%     50.00% # number of times we switched to this ipl from a different ipl
system.cpu2.kern.ipl_good::30                       1     50.00%    100.00% # number of times we switched to this ipl from a different ipl
system.cpu2.kern.ipl_good::total                    2                       # number of times we switched to this ipl from a different ipl
system.cpu2.kern.ipl_ticks::0               363089500     99.95%     99.95% # number of cycles we spent at this ipl
system.cpu2.kern.ipl_ticks::30                 164500      0.05%    100.00% # number of cycles we spent at this ipl
system.cpu2.kern.ipl_ticks::total           363254000                       # number of cycles we spent at this ipl
system.cpu2.kern.ipl_used::0                        1                       # fraction of swpipl calls that actually changed the ipl
system.cpu2.kern.ipl_used::30                       1                       # fraction of swpipl calls that actually changed the ipl
system.cpu2.kern.ipl_used::total                    1                       # fraction of swpipl calls that actually changed the ipl
system.cpu2.kern.callpal::rti                       1    100.00%    100.00% # number of callpals executed
system.cpu2.kern.callpal::total                     1                       # number of callpals executed
system.cpu2.kern.mode_switch::kernel                1                       # number of protection mode switches
system.cpu2.kern.mode_switch::user                  0                       # number of protection mode switches
system.cpu2.kern.mode_switch::idle                  0                       # number of protection mode switches
system.cpu2.kern.mode_good::kernel                  0                      
system.cpu2.kern.mode_good::user                    0                      
system.cpu2.kern.mode_good::idle                    0                      
system.cpu2.kern.mode_switch_good::kernel            0                       # fraction of useful protection mode switches
system.cpu2.kern.mode_switch_good::user           nan                       # fraction of useful protection mode switches
system.cpu2.kern.mode_switch_good::idle           nan                       # fraction of useful protection mode switches
system.cpu2.kern.mode_switch_good::total            0                       # fraction of useful protection mode switches
system.cpu2.kern.mode_ticks::kernel                 0                       # number of ticks spent at the given mode
system.cpu2.kern.mode_ticks::user                   0                       # number of ticks spent at the given mode
system.cpu2.kern.mode_ticks::idle                   0                       # number of ticks spent at the given mode
system.cpu2.kern.swap_context                       0                       # number of times the context was actually changed
system.cpu3.dtb.fetch_hits                          0                       # ITB hits
system.cpu3.dtb.fetch_misses                        0                       # ITB misses
system.cpu3.dtb.fetch_acv                           0                       # ITB acv
system.cpu3.dtb.fetch_accesses                      0                       # ITB accesses
system.cpu3.dtb.read_hits                       83416                       # DTB read hits
system.cpu3.dtb.read_misses                       371                       # DTB read misses
system.cpu3.dtb.read_acv                            0                       # DTB read access violations
system.cpu3.dtb.read_accesses                   34021                       # DTB read accesses
system.cpu3.dtb.write_hits                      89195                       # DTB write hits
system.cpu3.dtb.write_misses                      106                       # DTB write misses
system.cpu3.dtb.write_acv                           5                       # DTB write access violations
system.cpu3.dtb.write_accesses                  15515                       # DTB write accesses
system.cpu3.dtb.data_hits                      172611                       # DTB hits
system.cpu3.dtb.data_misses                       477                       # DTB misses
system.cpu3.dtb.data_acv                            5                       # DTB access violations
system.cpu3.dtb.data_accesses                   49536                       # DTB accesses
system.cpu3.itb.fetch_hits                     161705                       # ITB hits
system.cpu3.itb.fetch_misses                      152                       # ITB misses
system.cpu3.itb.fetch_acv                           0                       # ITB acv
system.cpu3.itb.fetch_accesses                 161857                       # ITB accesses
system.cpu3.itb.read_hits                           0                       # DTB read hits
system.cpu3.itb.read_misses                         0                       # DTB read misses
system.cpu3.itb.read_acv                            0                       # DTB read access violations
system.cpu3.itb.read_accesses                       0                       # DTB read accesses
system.cpu3.itb.write_hits                          0                       # DTB write hits
system.cpu3.itb.write_misses                        0                       # DTB write misses
system.cpu3.itb.write_acv                           0                       # DTB write access violations
system.cpu3.itb.write_accesses                      0                       # DTB write accesses
system.cpu3.itb.data_hits                           0                       # DTB hits
system.cpu3.itb.data_misses                         0                       # DTB misses
system.cpu3.itb.data_acv                            0                       # DTB access violations
system.cpu3.itb.data_accesses                       0                       # DTB accesses
system.cpu3.numCycles                         1139670                       # number of cpu cycles simulated
system.cpu3.numWorkItemsStarted                     0                       # number of work items this cpu started
system.cpu3.numWorkItemsCompleted                   0                       # number of work items this cpu completed
system.cpu3.committedInsts                     455130                       # Number of instructions committed
system.cpu3.committedOps                       455130                       # Number of ops (including micro ops) committed
system.cpu3.num_int_alu_accesses               438048                       # Number of integer alu accesses
system.cpu3.num_fp_alu_accesses                  3618                       # Number of float alu accesses
system.cpu3.num_func_calls                       8729                       # number of times a function call or return occured
system.cpu3.num_conditional_control_insts        46914                       # number of instructions that are conditional controls
system.cpu3.num_int_insts                      438048                       # number of integer instructions
system.cpu3.num_fp_insts                         3618                       # number of float instructions
system.cpu3.num_int_register_reads             630650                       # number of times the integer registers were read
system.cpu3.num_int_register_writes            297827                       # number of times the integer registers were written
system.cpu3.num_fp_register_reads                2367                       # number of times the floating registers were read
system.cpu3.num_fp_register_writes               2352                       # number of times the floating registers were written
system.cpu3.num_mem_refs                       173724                       # number of memory refs
system.cpu3.num_load_insts                      84255                       # Number of load instructions
system.cpu3.num_store_insts                     89469                       # Number of store instructions
system.cpu3.num_idle_cycles              424159.092712                       # Number of idle cycles
system.cpu3.num_busy_cycles              715510.907288                       # Number of busy cycles
system.cpu3.not_idle_fraction                0.627823                       # Percentage of non-idle cycles
system.cpu3.idle_fraction                    0.372177                       # Percentage of idle cycles
system.cpu3.Branches                            58537                       # Number of branches fetched
system.cpu3.op_class::No_OpClass                 9797      2.15%      2.15% # Class of executed instruction
system.cpu3.op_class::IntAlu                   258876     56.82%     58.97% # Class of executed instruction
system.cpu3.op_class::IntMult                     507      0.11%     59.08% # Class of executed instruction
system.cpu3.op_class::IntDiv                        0      0.00%     59.08% # Class of executed instruction
system.cpu3.op_class::FloatAdd                   1172      0.26%     59.34% # Class of executed instruction
system.cpu3.op_class::FloatCmp                      0      0.00%     59.34% # Class of executed instruction
system.cpu3.op_class::FloatCvt                      0      0.00%     59.34% # Class of executed instruction
system.cpu3.op_class::FloatMult                     0      0.00%     59.34% # Class of executed instruction
system.cpu3.op_class::FloatDiv                    227      0.05%     59.39% # Class of executed instruction
system.cpu3.op_class::FloatSqrt                     0      0.00%     59.39% # Class of executed instruction
system.cpu3.op_class::SimdAdd                       0      0.00%     59.39% # Class of executed instruction
system.cpu3.op_class::SimdAddAcc                    0      0.00%     59.39% # Class of executed instruction
system.cpu3.op_class::SimdAlu                       0      0.00%     59.39% # Class of executed instruction
system.cpu3.op_class::SimdCmp                       0      0.00%     59.39% # Class of executed instruction
system.cpu3.op_class::SimdCvt                       0      0.00%     59.39% # Class of executed instruction
system.cpu3.op_class::SimdMisc                      0      0.00%     59.39% # Class of executed instruction
system.cpu3.op_class::SimdMult                      0      0.00%     59.39% # Class of executed instruction
system.cpu3.op_class::SimdMultAcc                   0      0.00%     59.39% # Class of executed instruction
system.cpu3.op_class::SimdShift                     0      0.00%     59.39% # Class of executed instruction
system.cpu3.op_class::SimdShiftAcc                  0      0.00%     59.39% # Class of executed instruction
system.cpu3.op_class::SimdSqrt                      0      0.00%     59.39% # Class of executed instruction
system.cpu3.op_class::SimdFloatAdd                  0      0.00%     59.39% # Class of executed instruction
system.cpu3.op_class::SimdFloatAlu                  0      0.00%     59.39% # Class of executed instruction
system.cpu3.op_class::SimdFloatCmp                  0      0.00%     59.39% # Class of executed instruction
system.cpu3.op_class::SimdFloatCvt                  0      0.00%     59.39% # Class of executed instruction
system.cpu3.op_class::SimdFloatDiv                  0      0.00%     59.39% # Class of executed instruction
system.cpu3.op_class::SimdFloatMisc                 0      0.00%     59.39% # Class of executed instruction
system.cpu3.op_class::SimdFloatMult                 0      0.00%     59.39% # Class of executed instruction
system.cpu3.op_class::SimdFloatMultAcc              0      0.00%     59.39% # Class of executed instruction
system.cpu3.op_class::SimdFloatSqrt                 0      0.00%     59.39% # Class of executed instruction
system.cpu3.op_class::MemRead                   86548     19.00%     78.38% # Class of executed instruction
system.cpu3.op_class::MemWrite                  89536     19.65%     98.04% # Class of executed instruction
system.cpu3.op_class::IprAccess                  8949      1.96%    100.00% # Class of executed instruction
system.cpu3.op_class::InstPrefetch                  0      0.00%    100.00% # Class of executed instruction
system.cpu3.op_class::total                    455612                       # Class of executed instruction
system.cpu3.kern.inst.arm                           0                       # number of arm instructions executed
system.cpu3.kern.inst.quiesce                       0                       # number of quiesce instructions executed
system.cpu3.kern.inst.hwrei                      1197                       # number of hwrei instructions executed
system.cpu3.kern.ipl_count::0                     244     50.21%     50.21% # number of times we switched to this ipl
system.cpu3.kern.ipl_count::30                      1      0.21%     50.41% # number of times we switched to this ipl
system.cpu3.kern.ipl_count::31                    241     49.59%    100.00% # number of times we switched to this ipl
system.cpu3.kern.ipl_count::total                 486                       # number of times we switched to this ipl
system.cpu3.kern.ipl_good::0                      242     50.00%     50.00% # number of times we switched to this ipl from a different ipl
system.cpu3.kern.ipl_good::30                       1      0.21%     50.21% # number of times we switched to this ipl from a different ipl
system.cpu3.kern.ipl_good::31                     241     49.79%    100.00% # number of times we switched to this ipl from a different ipl
system.cpu3.kern.ipl_good::total                  484                       # number of times we switched to this ipl from a different ipl
system.cpu3.kern.ipl_ticks::0               557710500     97.91%     97.91% # number of cycles we spent at this ipl
system.cpu3.kern.ipl_ticks::30                 112000      0.02%     97.92% # number of cycles we spent at this ipl
system.cpu3.kern.ipl_ticks::31               11821500      2.08%    100.00% # number of cycles we spent at this ipl
system.cpu3.kern.ipl_ticks::total           569644000                       # number of cycles we spent at this ipl
system.cpu3.kern.ipl_used::0                 0.991803                       # fraction of swpipl calls that actually changed the ipl
system.cpu3.kern.ipl_used::30                       1                       # fraction of swpipl calls that actually changed the ipl
system.cpu3.kern.ipl_used::31                       1                       # fraction of swpipl calls that actually changed the ipl
system.cpu3.kern.ipl_used::total             0.995885                       # fraction of swpipl calls that actually changed the ipl
system.cpu3.kern.syscall::3                         1      8.33%      8.33% # number of syscalls executed
system.cpu3.kern.syscall::6                         1      8.33%     16.67% # number of syscalls executed
system.cpu3.kern.syscall::17                        1      8.33%     25.00% # number of syscalls executed
system.cpu3.kern.syscall::33                        1      8.33%     33.33% # number of syscalls executed
system.cpu3.kern.syscall::45                        3     25.00%     58.33% # number of syscalls executed
system.cpu3.kern.syscall::71                        4     33.33%     91.67% # number of syscalls executed
system.cpu3.kern.syscall::74                        1      8.33%    100.00% # number of syscalls executed
system.cpu3.kern.syscall::total                    12                       # number of syscalls executed
system.cpu3.kern.callpal::wripir                    3      0.53%      0.53% # number of callpals executed
system.cpu3.kern.callpal::swpctx                   53      9.43%      9.96% # number of callpals executed
system.cpu3.kern.callpal::tbi                       1      0.18%     10.14% # number of callpals executed
system.cpu3.kern.callpal::swpipl                  385     68.51%     78.65% # number of callpals executed
system.cpu3.kern.callpal::rdps                      1      0.18%     78.83% # number of callpals executed
system.cpu3.kern.callpal::wrusp                     1      0.18%     79.00% # number of callpals executed
system.cpu3.kern.callpal::rti                     100     17.79%     96.80% # number of callpals executed
system.cpu3.kern.callpal::callsys                  15      2.67%     99.47% # number of callpals executed
system.cpu3.kern.callpal::imb                       3      0.53%    100.00% # number of callpals executed
system.cpu3.kern.callpal::total                   562                       # number of callpals executed
system.cpu3.kern.mode_switch::kernel              152                       # number of protection mode switches
system.cpu3.kern.mode_switch::user                 97                       # number of protection mode switches
system.cpu3.kern.mode_switch::idle                  0                       # number of protection mode switches
system.cpu3.kern.mode_good::kernel                 96                      
system.cpu3.kern.mode_good::user                   97                      
system.cpu3.kern.mode_good::idle                    0                      
system.cpu3.kern.mode_switch_good::kernel     0.631579                       # fraction of useful protection mode switches
system.cpu3.kern.mode_switch_good::user             1                       # fraction of useful protection mode switches
system.cpu3.kern.mode_switch_good::idle           nan                       # fraction of useful protection mode switches
system.cpu3.kern.mode_switch_good::total     0.775100                       # fraction of useful protection mode switches
system.cpu3.kern.mode_ticks::kernel         609287500     88.98%     88.98% # number of ticks spent at the given mode
system.cpu3.kern.mode_ticks::user            75495000     11.02%    100.00% # number of ticks spent at the given mode
system.cpu3.kern.mode_ticks::idle                   0      0.00%    100.00% # number of ticks spent at the given mode
system.cpu3.kern.swap_context                      53                       # number of times the context was actually changed

---------- End Simulation Statistics   ----------
