
---------- Begin Simulation Statistics ----------
sim_seconds                                  2.441804                       # Number of seconds simulated
sim_ticks                                2441803779500                       # Number of ticks simulated
final_tick                               2441803779500                       # Number of ticks from beginning of simulation (restored from checkpoints and never reset)
sim_freq                                 1000000000000                       # Frequency of simulated ticks
host_inst_rate                                 179117                       # Simulator instruction rate (inst/s)
host_op_rate                                   179117                       # Simulator op (including micro ops) rate (op/s)
host_tick_rate                             4956810532                       # Simulator tick rate (ticks/s)
host_mem_usage                                 457456                       # Number of bytes of host memory used
host_seconds                                   492.62                       # Real time elapsed on the host
sim_insts                                    88236021                       # Number of instructions simulated
sim_ops                                      88236021                       # Number of ops (including micro ops) simulated
system.voltage_domain.voltage                       1                       # Voltage in Volts
system.clk_domain.clock                          1000                       # Clock period in ticks
system.mem_ctrls.bytes_read::cpu.inst        89096384                       # Number of bytes read from this memory
system.mem_ctrls.bytes_read::cpu.data       183070528                       # Number of bytes read from this memory
system.mem_ctrls.bytes_read::tsunami.ide         5952                       # Number of bytes read from this memory
system.mem_ctrls.bytes_read::total          272172864                       # Number of bytes read from this memory
system.mem_ctrls.bytes_inst_read::cpu.inst     89096384                       # Number of instructions bytes read from this memory
system.mem_ctrls.bytes_inst_read::total      89096384                       # Number of instructions bytes read from this memory
system.mem_ctrls.bytes_written::writebacks     30405504                       # Number of bytes written to this memory
system.mem_ctrls.bytes_written::tsunami.ide      2832384                       # Number of bytes written to this memory
system.mem_ctrls.bytes_written::total        33237888                       # Number of bytes written to this memory
system.mem_ctrls.num_reads::cpu.inst          1392131                       # Number of read requests responded to by this memory
system.mem_ctrls.num_reads::cpu.data          2860477                       # Number of read requests responded to by this memory
system.mem_ctrls.num_reads::tsunami.ide            93                       # Number of read requests responded to by this memory
system.mem_ctrls.num_reads::total             4252701                       # Number of read requests responded to by this memory
system.mem_ctrls.num_writes::writebacks        475086                       # Number of write requests responded to by this memory
system.mem_ctrls.num_writes::tsunami.ide        44256                       # Number of write requests responded to by this memory
system.mem_ctrls.num_writes::total             519342                       # Number of write requests responded to by this memory
system.mem_ctrls.bw_read::cpu.inst           36487938                       # Total read bandwidth from this memory (bytes/s)
system.mem_ctrls.bw_read::cpu.data           74973480                       # Total read bandwidth from this memory (bytes/s)
system.mem_ctrls.bw_read::tsunami.ide            2438                       # Total read bandwidth from this memory (bytes/s)
system.mem_ctrls.bw_read::total             111463856                       # Total read bandwidth from this memory (bytes/s)
system.mem_ctrls.bw_inst_read::cpu.inst      36487938                       # Instruction read bandwidth from this memory (bytes/s)
system.mem_ctrls.bw_inst_read::total         36487938                       # Instruction read bandwidth from this memory (bytes/s)
system.mem_ctrls.bw_write::writebacks        12452067                       # Write bandwidth from this memory (bytes/s)
system.mem_ctrls.bw_write::tsunami.ide        1159956                       # Write bandwidth from this memory (bytes/s)
system.mem_ctrls.bw_write::total             13612023                       # Write bandwidth from this memory (bytes/s)
system.mem_ctrls.bw_total::writebacks        12452067                       # Total bandwidth to/from this memory (bytes/s)
system.mem_ctrls.bw_total::cpu.inst          36487938                       # Total bandwidth to/from this memory (bytes/s)
system.mem_ctrls.bw_total::cpu.data          74973480                       # Total bandwidth to/from this memory (bytes/s)
system.mem_ctrls.bw_total::tsunami.ide        1162393                       # Total bandwidth to/from this memory (bytes/s)
system.mem_ctrls.bw_total::total            125075878                       # Total bandwidth to/from this memory (bytes/s)
system.mem_ctrls.readReqs                     4252701                       # Number of read requests accepted
system.mem_ctrls.writeReqs                     519342                       # Number of write requests accepted
system.mem_ctrls.readBursts                   4252701                       # Number of DRAM read bursts, including those serviced by the write queue
system.mem_ctrls.writeBursts                   519342                       # Number of DRAM write bursts, including those merged in the write queue
system.mem_ctrls.bytesReadDRAM              269858560                       # Total number of bytes read from DRAM
system.mem_ctrls.bytesReadWrQ                 2314304                       # Total number of bytes read from write queue
system.mem_ctrls.bytesWritten                32876032                       # Total number of bytes written to DRAM
system.mem_ctrls.bytesReadSys               272172864                       # Total read bytes from the system interface side
system.mem_ctrls.bytesWrittenSys             33237888                       # Total written bytes from the system interface side
system.mem_ctrls.servicedByWrQ                  36161                       # Number of DRAM read bursts serviced by the write queue
system.mem_ctrls.mergedWrBursts                  5637                       # Number of DRAM write bursts merged with an existing one
system.mem_ctrls.neitherReadNorWriteReqs          154                       # Number of requests that are neither read nor write
system.mem_ctrls.perBankRdBursts::0            296252                       # Per bank write bursts
system.mem_ctrls.perBankRdBursts::1            305584                       # Per bank write bursts
system.mem_ctrls.perBankRdBursts::2            175309                       # Per bank write bursts
system.mem_ctrls.perBankRdBursts::3            186360                       # Per bank write bursts
system.mem_ctrls.perBankRdBursts::4            228636                       # Per bank write bursts
system.mem_ctrls.perBankRdBursts::5            190834                       # Per bank write bursts
system.mem_ctrls.perBankRdBursts::6            227565                       # Per bank write bursts
system.mem_ctrls.perBankRdBursts::7            197481                       # Per bank write bursts
system.mem_ctrls.perBankRdBursts::8            316248                       # Per bank write bursts
system.mem_ctrls.perBankRdBursts::9            313231                       # Per bank write bursts
system.mem_ctrls.perBankRdBursts::10           323278                       # Per bank write bursts
system.mem_ctrls.perBankRdBursts::11           296587                       # Per bank write bursts
system.mem_ctrls.perBankRdBursts::12           298772                       # Per bank write bursts
system.mem_ctrls.perBankRdBursts::13           325447                       # Per bank write bursts
system.mem_ctrls.perBankRdBursts::14           250017                       # Per bank write bursts
system.mem_ctrls.perBankRdBursts::15           284939                       # Per bank write bursts
system.mem_ctrls.perBankWrBursts::0             25341                       # Per bank write bursts
system.mem_ctrls.perBankWrBursts::1             39802                       # Per bank write bursts
system.mem_ctrls.perBankWrBursts::2             25778                       # Per bank write bursts
system.mem_ctrls.perBankWrBursts::3             21726                       # Per bank write bursts
system.mem_ctrls.perBankWrBursts::4             18468                       # Per bank write bursts
system.mem_ctrls.perBankWrBursts::5             20217                       # Per bank write bursts
system.mem_ctrls.perBankWrBursts::6             19154                       # Per bank write bursts
system.mem_ctrls.perBankWrBursts::7             37285                       # Per bank write bursts
system.mem_ctrls.perBankWrBursts::8             26368                       # Per bank write bursts
system.mem_ctrls.perBankWrBursts::9             26264                       # Per bank write bursts
system.mem_ctrls.perBankWrBursts::10            41399                       # Per bank write bursts
system.mem_ctrls.perBankWrBursts::11            55225                       # Per bank write bursts
system.mem_ctrls.perBankWrBursts::12            29955                       # Per bank write bursts
system.mem_ctrls.perBankWrBursts::13            71593                       # Per bank write bursts
system.mem_ctrls.perBankWrBursts::14            24988                       # Per bank write bursts
system.mem_ctrls.perBankWrBursts::15            30125                       # Per bank write bursts
system.mem_ctrls.numRdRetry                         0                       # Number of times read queue was full causing retry
system.mem_ctrls.numWrRetry                        46                       # Number of times write queue was full causing retry
system.mem_ctrls.totGap                  2441803706000                       # Total gap between requests
system.mem_ctrls.readPktSize::0                     0                       # Read request sizes (log2)
system.mem_ctrls.readPktSize::1                     0                       # Read request sizes (log2)
system.mem_ctrls.readPktSize::2                     0                       # Read request sizes (log2)
system.mem_ctrls.readPktSize::3                     0                       # Read request sizes (log2)
system.mem_ctrls.readPktSize::4                     0                       # Read request sizes (log2)
system.mem_ctrls.readPktSize::5                     0                       # Read request sizes (log2)
system.mem_ctrls.readPktSize::6               4252701                       # Read request sizes (log2)
system.mem_ctrls.writePktSize::0                    0                       # Write request sizes (log2)
system.mem_ctrls.writePktSize::1                    0                       # Write request sizes (log2)
system.mem_ctrls.writePktSize::2                    0                       # Write request sizes (log2)
system.mem_ctrls.writePktSize::3                    0                       # Write request sizes (log2)
system.mem_ctrls.writePktSize::4                    0                       # Write request sizes (log2)
system.mem_ctrls.writePktSize::5                    0                       # Write request sizes (log2)
system.mem_ctrls.writePktSize::6               519342                       # Write request sizes (log2)
system.mem_ctrls.rdQLenPdf::0                 2903919                       # What read queue length does an incoming req see
system.mem_ctrls.rdQLenPdf::1                 1007674                       # What read queue length does an incoming req see
system.mem_ctrls.rdQLenPdf::2                  237873                       # What read queue length does an incoming req see
system.mem_ctrls.rdQLenPdf::3                   61272                       # What read queue length does an incoming req see
system.mem_ctrls.rdQLenPdf::4                    5238                       # What read queue length does an incoming req see
system.mem_ctrls.rdQLenPdf::5                     511                       # What read queue length does an incoming req see
system.mem_ctrls.rdQLenPdf::6                      28                       # What read queue length does an incoming req see
system.mem_ctrls.rdQLenPdf::7                       9                       # What read queue length does an incoming req see
system.mem_ctrls.rdQLenPdf::8                       3                       # What read queue length does an incoming req see
system.mem_ctrls.rdQLenPdf::9                       1                       # What read queue length does an incoming req see
system.mem_ctrls.rdQLenPdf::10                      1                       # What read queue length does an incoming req see
system.mem_ctrls.rdQLenPdf::11                      2                       # What read queue length does an incoming req see
system.mem_ctrls.rdQLenPdf::12                      1                       # What read queue length does an incoming req see
system.mem_ctrls.rdQLenPdf::13                      1                       # What read queue length does an incoming req see
system.mem_ctrls.rdQLenPdf::14                      1                       # What read queue length does an incoming req see
system.mem_ctrls.rdQLenPdf::15                      2                       # What read queue length does an incoming req see
system.mem_ctrls.rdQLenPdf::16                      1                       # What read queue length does an incoming req see
system.mem_ctrls.rdQLenPdf::17                      1                       # What read queue length does an incoming req see
system.mem_ctrls.rdQLenPdf::18                      1                       # What read queue length does an incoming req see
system.mem_ctrls.rdQLenPdf::19                      1                       # What read queue length does an incoming req see
system.mem_ctrls.rdQLenPdf::20                      0                       # What read queue length does an incoming req see
system.mem_ctrls.rdQLenPdf::21                      0                       # What read queue length does an incoming req see
system.mem_ctrls.rdQLenPdf::22                      0                       # What read queue length does an incoming req see
system.mem_ctrls.rdQLenPdf::23                      0                       # What read queue length does an incoming req see
system.mem_ctrls.rdQLenPdf::24                      0                       # What read queue length does an incoming req see
system.mem_ctrls.rdQLenPdf::25                      0                       # What read queue length does an incoming req see
system.mem_ctrls.rdQLenPdf::26                      0                       # What read queue length does an incoming req see
system.mem_ctrls.rdQLenPdf::27                      0                       # What read queue length does an incoming req see
system.mem_ctrls.rdQLenPdf::28                      0                       # What read queue length does an incoming req see
system.mem_ctrls.rdQLenPdf::29                      0                       # What read queue length does an incoming req see
system.mem_ctrls.rdQLenPdf::30                      0                       # What read queue length does an incoming req see
system.mem_ctrls.rdQLenPdf::31                      0                       # What read queue length does an incoming req see
system.mem_ctrls.wrQLenPdf::0                       1                       # What write queue length does an incoming req see
system.mem_ctrls.wrQLenPdf::1                       1                       # What write queue length does an incoming req see
system.mem_ctrls.wrQLenPdf::2                       1                       # What write queue length does an incoming req see
system.mem_ctrls.wrQLenPdf::3                       1                       # What write queue length does an incoming req see
system.mem_ctrls.wrQLenPdf::4                       1                       # What write queue length does an incoming req see
system.mem_ctrls.wrQLenPdf::5                       1                       # What write queue length does an incoming req see
system.mem_ctrls.wrQLenPdf::6                       1                       # What write queue length does an incoming req see
system.mem_ctrls.wrQLenPdf::7                       1                       # What write queue length does an incoming req see
system.mem_ctrls.wrQLenPdf::8                       1                       # What write queue length does an incoming req see
system.mem_ctrls.wrQLenPdf::9                       1                       # What write queue length does an incoming req see
system.mem_ctrls.wrQLenPdf::10                      1                       # What write queue length does an incoming req see
system.mem_ctrls.wrQLenPdf::11                      1                       # What write queue length does an incoming req see
system.mem_ctrls.wrQLenPdf::12                      1                       # What write queue length does an incoming req see
system.mem_ctrls.wrQLenPdf::13                      1                       # What write queue length does an incoming req see
system.mem_ctrls.wrQLenPdf::14                      1                       # What write queue length does an incoming req see
system.mem_ctrls.wrQLenPdf::15                   1131                       # What write queue length does an incoming req see
system.mem_ctrls.wrQLenPdf::16                   1601                       # What write queue length does an incoming req see
system.mem_ctrls.wrQLenPdf::17                  18604                       # What write queue length does an incoming req see
system.mem_ctrls.wrQLenPdf::18                  21984                       # What write queue length does an incoming req see
system.mem_ctrls.wrQLenPdf::19                  23778                       # What write queue length does an incoming req see
system.mem_ctrls.wrQLenPdf::20                  28663                       # What write queue length does an incoming req see
system.mem_ctrls.wrQLenPdf::21                  30415                       # What write queue length does an incoming req see
system.mem_ctrls.wrQLenPdf::22                  32222                       # What write queue length does an incoming req see
system.mem_ctrls.wrQLenPdf::23                  34439                       # What write queue length does an incoming req see
system.mem_ctrls.wrQLenPdf::24                  35352                       # What write queue length does an incoming req see
system.mem_ctrls.wrQLenPdf::25                  35463                       # What write queue length does an incoming req see
system.mem_ctrls.wrQLenPdf::26                  37209                       # What write queue length does an incoming req see
system.mem_ctrls.wrQLenPdf::27                  35509                       # What write queue length does an incoming req see
system.mem_ctrls.wrQLenPdf::28                  35043                       # What write queue length does an incoming req see
system.mem_ctrls.wrQLenPdf::29                  33158                       # What write queue length does an incoming req see
system.mem_ctrls.wrQLenPdf::30                  32954                       # What write queue length does an incoming req see
system.mem_ctrls.wrQLenPdf::31                  32742                       # What write queue length does an incoming req see
system.mem_ctrls.wrQLenPdf::32                  32410                       # What write queue length does an incoming req see
system.mem_ctrls.wrQLenPdf::33                   1372                       # What write queue length does an incoming req see
system.mem_ctrls.wrQLenPdf::34                   1084                       # What write queue length does an incoming req see
system.mem_ctrls.wrQLenPdf::35                    944                       # What write queue length does an incoming req see
system.mem_ctrls.wrQLenPdf::36                    742                       # What write queue length does an incoming req see
system.mem_ctrls.wrQLenPdf::37                    630                       # What write queue length does an incoming req see
system.mem_ctrls.wrQLenPdf::38                    569                       # What write queue length does an incoming req see
system.mem_ctrls.wrQLenPdf::39                    455                       # What write queue length does an incoming req see
system.mem_ctrls.wrQLenPdf::40                    383                       # What write queue length does an incoming req see
system.mem_ctrls.wrQLenPdf::41                    311                       # What write queue length does an incoming req see
system.mem_ctrls.wrQLenPdf::42                    307                       # What write queue length does an incoming req see
system.mem_ctrls.wrQLenPdf::43                    285                       # What write queue length does an incoming req see
system.mem_ctrls.wrQLenPdf::44                    283                       # What write queue length does an incoming req see
system.mem_ctrls.wrQLenPdf::45                    248                       # What write queue length does an incoming req see
system.mem_ctrls.wrQLenPdf::46                    237                       # What write queue length does an incoming req see
system.mem_ctrls.wrQLenPdf::47                    239                       # What write queue length does an incoming req see
system.mem_ctrls.wrQLenPdf::48                    245                       # What write queue length does an incoming req see
system.mem_ctrls.wrQLenPdf::49                    244                       # What write queue length does an incoming req see
system.mem_ctrls.wrQLenPdf::50                    233                       # What write queue length does an incoming req see
system.mem_ctrls.wrQLenPdf::51                    210                       # What write queue length does an incoming req see
system.mem_ctrls.wrQLenPdf::52                    190                       # What write queue length does an incoming req see
system.mem_ctrls.wrQLenPdf::53                    190                       # What write queue length does an incoming req see
system.mem_ctrls.wrQLenPdf::54                    176                       # What write queue length does an incoming req see
system.mem_ctrls.wrQLenPdf::55                    170                       # What write queue length does an incoming req see
system.mem_ctrls.wrQLenPdf::56                    173                       # What write queue length does an incoming req see
system.mem_ctrls.wrQLenPdf::57                    194                       # What write queue length does an incoming req see
system.mem_ctrls.wrQLenPdf::58                    192                       # What write queue length does an incoming req see
system.mem_ctrls.wrQLenPdf::59                    169                       # What write queue length does an incoming req see
system.mem_ctrls.wrQLenPdf::60                    170                       # What write queue length does an incoming req see
system.mem_ctrls.wrQLenPdf::61                    132                       # What write queue length does an incoming req see
system.mem_ctrls.wrQLenPdf::62                    114                       # What write queue length does an incoming req see
system.mem_ctrls.wrQLenPdf::63                    122                       # What write queue length does an incoming req see
system.mem_ctrls.bytesPerActivate::samples       992488                       # Bytes accessed per row activation
system.mem_ctrls.bytesPerActivate::mean    305.022916                       # Bytes accessed per row activation
system.mem_ctrls.bytesPerActivate::gmean   176.690955                       # Bytes accessed per row activation
system.mem_ctrls.bytesPerActivate::stdev   333.944430                       # Bytes accessed per row activation
system.mem_ctrls.bytesPerActivate::0-127       379330     38.22%     38.22% # Bytes accessed per row activation
system.mem_ctrls.bytesPerActivate::128-255       257069     25.90%     64.12% # Bytes accessed per row activation
system.mem_ctrls.bytesPerActivate::256-383        83646      8.43%     72.55% # Bytes accessed per row activation
system.mem_ctrls.bytesPerActivate::384-511        50444      5.08%     77.63% # Bytes accessed per row activation
system.mem_ctrls.bytesPerActivate::512-639        37213      3.75%     81.38% # Bytes accessed per row activation
system.mem_ctrls.bytesPerActivate::640-767        23446      2.36%     83.74% # Bytes accessed per row activation
system.mem_ctrls.bytesPerActivate::768-895        18866      1.90%     85.64% # Bytes accessed per row activation
system.mem_ctrls.bytesPerActivate::896-1023        14929      1.50%     87.15% # Bytes accessed per row activation
system.mem_ctrls.bytesPerActivate::1024-1151       127545     12.85%    100.00% # Bytes accessed per row activation
system.mem_ctrls.bytesPerActivate::total       992488                       # Bytes accessed per row activation
system.mem_ctrls.rdPerTurnAround::samples        31414                       # Reads before turning the bus around for writes
system.mem_ctrls.rdPerTurnAround::mean     134.224677                       # Reads before turning the bus around for writes
system.mem_ctrls.rdPerTurnAround::stdev   5824.779435                       # Reads before turning the bus around for writes
system.mem_ctrls.rdPerTurnAround::0-32767        31413    100.00%    100.00% # Reads before turning the bus around for writes
system.mem_ctrls.rdPerTurnAround::1.01581e+06-1.04858e+06            1      0.00%    100.00% # Reads before turning the bus around for writes
system.mem_ctrls.rdPerTurnAround::total         31414                       # Reads before turning the bus around for writes
system.mem_ctrls.wrPerTurnAround::samples        31414                       # Writes before turning the bus around for reads
system.mem_ctrls.wrPerTurnAround::mean      16.352200                       # Writes before turning the bus around for reads
system.mem_ctrls.wrPerTurnAround::gmean     16.193603                       # Writes before turning the bus around for reads
system.mem_ctrls.wrPerTurnAround::stdev      4.378138                       # Writes before turning the bus around for reads
system.mem_ctrls.wrPerTurnAround::16-19         31167     99.21%     99.21% # Writes before turning the bus around for reads
system.mem_ctrls.wrPerTurnAround::20-23            74      0.24%     99.45% # Writes before turning the bus around for reads
system.mem_ctrls.wrPerTurnAround::24-27            11      0.04%     99.48% # Writes before turning the bus around for reads
system.mem_ctrls.wrPerTurnAround::28-31            64      0.20%     99.69% # Writes before turning the bus around for reads
system.mem_ctrls.wrPerTurnAround::32-35             5      0.02%     99.70% # Writes before turning the bus around for reads
system.mem_ctrls.wrPerTurnAround::36-39             1      0.00%     99.71% # Writes before turning the bus around for reads
system.mem_ctrls.wrPerTurnAround::40-43             1      0.00%     99.71% # Writes before turning the bus around for reads
system.mem_ctrls.wrPerTurnAround::44-47             1      0.00%     99.71% # Writes before turning the bus around for reads
system.mem_ctrls.wrPerTurnAround::48-51             6      0.02%     99.73% # Writes before turning the bus around for reads
system.mem_ctrls.wrPerTurnAround::56-59             2      0.01%     99.74% # Writes before turning the bus around for reads
system.mem_ctrls.wrPerTurnAround::60-63             2      0.01%     99.75% # Writes before turning the bus around for reads
system.mem_ctrls.wrPerTurnAround::64-67             1      0.00%     99.75% # Writes before turning the bus around for reads
system.mem_ctrls.wrPerTurnAround::68-71             2      0.01%     99.75% # Writes before turning the bus around for reads
system.mem_ctrls.wrPerTurnAround::72-75             3      0.01%     99.76% # Writes before turning the bus around for reads
system.mem_ctrls.wrPerTurnAround::80-83             5      0.02%     99.78% # Writes before turning the bus around for reads
system.mem_ctrls.wrPerTurnAround::84-87             2      0.01%     99.79% # Writes before turning the bus around for reads
system.mem_ctrls.wrPerTurnAround::88-91             1      0.00%     99.79% # Writes before turning the bus around for reads
system.mem_ctrls.wrPerTurnAround::92-95             4      0.01%     99.80% # Writes before turning the bus around for reads
system.mem_ctrls.wrPerTurnAround::96-99            51      0.16%     99.96% # Writes before turning the bus around for reads
system.mem_ctrls.wrPerTurnAround::100-103            1      0.00%     99.97% # Writes before turning the bus around for reads
system.mem_ctrls.wrPerTurnAround::112-115            1      0.00%     99.97% # Writes before turning the bus around for reads
system.mem_ctrls.wrPerTurnAround::116-119            1      0.00%     99.97% # Writes before turning the bus around for reads
system.mem_ctrls.wrPerTurnAround::124-127            1      0.00%     99.98% # Writes before turning the bus around for reads
system.mem_ctrls.wrPerTurnAround::128-131            1      0.00%     99.98% # Writes before turning the bus around for reads
system.mem_ctrls.wrPerTurnAround::132-135            1      0.00%     99.98% # Writes before turning the bus around for reads
system.mem_ctrls.wrPerTurnAround::140-143            2      0.01%     99.99% # Writes before turning the bus around for reads
system.mem_ctrls.wrPerTurnAround::144-147            2      0.01%    100.00% # Writes before turning the bus around for reads
system.mem_ctrls.wrPerTurnAround::168-171            1      0.00%    100.00% # Writes before turning the bus around for reads
system.mem_ctrls.wrPerTurnAround::total         31414                       # Writes before turning the bus around for reads
system.mem_ctrls.totQLat                  39783892998                       # Total ticks spent queuing
system.mem_ctrls.totMemAccLat            118844017998                       # Total ticks spent from burst creation until serviced by the DRAM
system.mem_ctrls.totBusLat                21082700000                       # Total ticks spent in databus transfers
system.mem_ctrls.avgQLat                      9435.20                       # Average queueing delay per DRAM burst
system.mem_ctrls.avgBusLat                    5000.00                       # Average bus latency per DRAM burst
system.mem_ctrls.avgMemAccLat                28185.20                       # Average memory access latency per DRAM burst
system.mem_ctrls.avgRdBW                       110.52                       # Average DRAM read bandwidth in MiByte/s
system.mem_ctrls.avgWrBW                        13.46                       # Average achieved write bandwidth in MiByte/s
system.mem_ctrls.avgRdBWSys                    111.46                       # Average system read bandwidth in MiByte/s
system.mem_ctrls.avgWrBWSys                     13.61                       # Average system write bandwidth in MiByte/s
system.mem_ctrls.peakBW                      12800.00                       # Theoretical peak bandwidth in MiByte/s
system.mem_ctrls.busUtil                         0.97                       # Data bus utilization in percentage
system.mem_ctrls.busUtilRead                     0.86                       # Data bus utilization in percentage for reads
system.mem_ctrls.busUtilWrite                    0.11                       # Data bus utilization in percentage for writes
system.mem_ctrls.avgRdQLen                       1.04                       # Average read queue length when enqueuing
system.mem_ctrls.avgWrQLen                      24.42                       # Average write queue length when enqueuing
system.mem_ctrls.readRowHits                  3382896                       # Number of row buffer hits during reads
system.mem_ctrls.writeRowHits                  354828                       # Number of row buffer hits during writes
system.mem_ctrls.readRowHitRate                 80.23                       # Row buffer hit rate for reads
system.mem_ctrls.writeRowHitRate                69.07                       # Row buffer hit rate for writes
system.mem_ctrls.avgGap                     511689.38                       # Average gap between requests
system.mem_ctrls.pageHitRate                    79.02                       # Row buffer hit rate, read and write combined
system.mem_ctrls.memoryStateTime::IDLE   2173744070000                       # Time in different power states
system.mem_ctrls.memoryStateTime::REF     81537040000                       # Time in different power states
system.mem_ctrls.memoryStateTime::PRE_PDN            0                       # Time in different power states
system.mem_ctrls.memoryStateTime::ACT    186518328000                       # Time in different power states
system.mem_ctrls.memoryStateTime::ACT_PDN            0                       # Time in different power states
system.mem_ctrls.actEnergy::0              2887390800                       # Energy for activate commands per rank (pJ)
system.mem_ctrls.actEnergy::1              4615553880                       # Energy for activate commands per rank (pJ)
system.mem_ctrls.preEnergy::0              1575461250                       # Energy for precharge commands per rank (pJ)
system.mem_ctrls.preEnergy::1              2518407375                       # Energy for precharge commands per rank (pJ)
system.mem_ctrls.readEnergy::0            14102251800                       # Energy for read commands per rank (pJ)
system.mem_ctrls.readEnergy::1            18785956800                       # Energy for read commands per rank (pJ)
system.mem_ctrls.writeEnergy::0            1346045040                       # Energy for write commands per rank (pJ)
system.mem_ctrls.writeEnergy::1            1982342160                       # Energy for write commands per rank (pJ)
system.mem_ctrls.refreshEnergy::0        159486450240                       # Energy for refresh commands per rank (pJ)
system.mem_ctrls.refreshEnergy::1        159486450240                       # Energy for refresh commands per rank (pJ)
system.mem_ctrls.actBackEnergy::0        157027124025                       # Energy for active background per rank (pJ)
system.mem_ctrls.actBackEnergy::1        162601849710                       # Energy for active background per rank (pJ)
system.mem_ctrls.preBackEnergy::0        1327336563750                       # Energy for precharge background per rank (pJ)
system.mem_ctrls.preBackEnergy::1        1322446453500                       # Energy for precharge background per rank (pJ)
system.mem_ctrls.totalEnergy::0          1663761286905                       # Total energy per rank (pJ)
system.mem_ctrls.totalEnergy::1          1672437013665                       # Total energy per rank (pJ)
system.mem_ctrls.averagePower::0           681.366893                       # Core power per rank (mW)
system.mem_ctrls.averagePower::1           684.919898                       # Core power per rank (mW)
system.membus.trans_dist::ReadReq             3947209                       # Transaction distribution
system.membus.trans_dist::ReadResp            3946875                       # Transaction distribution
system.membus.trans_dist::WriteReq              10294                       # Transaction distribution
system.membus.trans_dist::WriteResp             10294                       # Transaction distribution
system.membus.trans_dist::Writeback            475086                       # Transaction distribution
system.membus.trans_dist::WriteInvalidateReq        44256                       # Transaction distribution
system.membus.trans_dist::WriteInvalidateResp        44256                       # Transaction distribution
system.membus.trans_dist::UpgradeReq              142                       # Transaction distribution
system.membus.trans_dist::SCUpgradeReq             12                       # Transaction distribution
system.membus.trans_dist::UpgradeResp             154                       # Transaction distribution
system.membus.trans_dist::ReadExReq            313482                       # Transaction distribution
system.membus.trans_dist::ReadExResp           313482                       # Transaction distribution
system.membus.trans_dist::BadAddressError          334                       # Transaction distribution
system.membus.pkt_count_system.iocache.mem_side::system.mem_ctrls.port        88814                       # Packet count per connected master and slave (bytes)
system.membus.pkt_count_system.iocache.mem_side::total        88814                       # Packet count per connected master and slave (bytes)
system.membus.pkt_count_system.cpu.icache.mem_side::system.mem_ctrls.port      2784530                       # Packet count per connected master and slave (bytes)
system.membus.pkt_count_system.cpu.icache.mem_side::total      2784530                       # Packet count per connected master and slave (bytes)
system.membus.pkt_count_system.cpu.dcache.mem_side::system.bridge.slave        35132                       # Packet count per connected master and slave (bytes)
system.membus.pkt_count_system.cpu.dcache.mem_side::system.mem_ctrls.port      6196348                       # Packet count per connected master and slave (bytes)
system.membus.pkt_count_system.cpu.dcache.mem_side::system.membus.badaddr_responder.pio          668                       # Packet count per connected master and slave (bytes)
system.membus.pkt_count_system.cpu.dcache.mem_side::total      6232148                       # Packet count per connected master and slave (bytes)
system.membus.pkt_count::total                9105492                       # Packet count per connected master and slave (bytes)
system.membus.pkt_size_system.iocache.mem_side::system.mem_ctrls.port      2838336                       # Cumulative packet size per connected master and slave (bytes)
system.membus.pkt_size_system.iocache.mem_side::total      2838336                       # Cumulative packet size per connected master and slave (bytes)
system.membus.pkt_size_system.cpu.icache.mem_side::system.mem_ctrls.port     89096384                       # Cumulative packet size per connected master and slave (bytes)
system.membus.pkt_size_system.cpu.icache.mem_side::total     89096384                       # Cumulative packet size per connected master and slave (bytes)
system.membus.pkt_size_system.cpu.dcache.mem_side::system.bridge.slave        46281                       # Cumulative packet size per connected master and slave (bytes)
system.membus.pkt_size_system.cpu.dcache.mem_side::system.mem_ctrls.port    213476032                       # Cumulative packet size per connected master and slave (bytes)
system.membus.pkt_size_system.cpu.dcache.mem_side::total    213522313                       # Cumulative packet size per connected master and slave (bytes)
system.membus.pkt_size::total               305457033                       # Cumulative packet size per connected master and slave (bytes)
system.membus.snoops                              384                       # Total snoops (count)
system.membus.snoop_fanout::samples           4772961                       # Request fanout histogram
system.membus.snoop_fanout::mean                    2                       # Request fanout histogram
system.membus.snoop_fanout::stdev                   0                       # Request fanout histogram
system.membus.snoop_fanout::underflows              0      0.00%      0.00% # Request fanout histogram
system.membus.snoop_fanout::0                       0      0.00%      0.00% # Request fanout histogram
system.membus.snoop_fanout::1                       0      0.00%      0.00% # Request fanout histogram
system.membus.snoop_fanout::2                 4772961    100.00%    100.00% # Request fanout histogram
system.membus.snoop_fanout::3                       0      0.00%    100.00% # Request fanout histogram
system.membus.snoop_fanout::overflows               0      0.00%    100.00% # Request fanout histogram
system.membus.snoop_fanout::min_value               2                       # Request fanout histogram
system.membus.snoop_fanout::max_value               2                       # Request fanout histogram
system.membus.snoop_fanout::total             4772961                       # Request fanout histogram
system.membus.reqLayer0.occupancy            30826496                       # Layer occupancy (ticks)
system.membus.reqLayer0.utilization               0.0                       # Layer utilization (%)
system.membus.reqLayer1.occupancy         10182262744                       # Layer occupancy (ticks)
system.membus.reqLayer1.utilization               0.4                       # Layer utilization (%)
system.membus.reqLayer2.occupancy              417000                       # Layer occupancy (ticks)
system.membus.reqLayer2.utilization               0.0                       # Layer utilization (%)
system.membus.respLayer1.occupancy           46403264                       # Layer occupancy (ticks)
system.membus.respLayer1.utilization              0.0                       # Layer utilization (%)
system.membus.respLayer2.occupancy        13149678429                       # Layer occupancy (ticks)
system.membus.respLayer2.utilization              0.5                       # Layer utilization (%)
system.membus.respLayer3.occupancy        26949513793                       # Layer occupancy (ticks)
system.membus.respLayer3.utilization              1.1                       # Layer utilization (%)
system.iocache.tags.replacements                44449                       # number of replacements
system.iocache.tags.tagsinuse                0.234858                       # Cycle average of tags in use
system.iocache.tags.total_refs                      0                       # Total number of references to valid blocks.
system.iocache.tags.sampled_refs                44449                       # Sample count of references to valid blocks.
system.iocache.tags.avg_refs                        0                       # Average number of references to valid blocks.
system.iocache.tags.warmup_cycle         2405961583000                       # Cycle when the warmup percentage was hit.
system.iocache.tags.occ_blocks::tsunami.ide     0.234858                       # Average occupied blocks per requestor
system.iocache.tags.occ_percent::tsunami.ide     0.014679                       # Average percentage of cache occupancy
system.iocache.tags.occ_percent::total       0.014679                       # Average percentage of cache occupancy
system.iocache.tags.occ_task_id_blocks::1023           16                       # Occupied blocks per task id
system.iocache.tags.age_task_id_blocks_1023::3           16                       # Occupied blocks per task id
system.iocache.tags.occ_task_id_percent::1023            1                       # Percentage of cache occupancy per task id
system.iocache.tags.tag_accesses               400393                       # Number of tag accesses
system.iocache.tags.data_accesses              400393                       # Number of data accesses
system.iocache.WriteInvalidateReq_hits::tsunami.ide        44256                       # number of WriteInvalidateReq hits
system.iocache.WriteInvalidateReq_hits::total        44256                       # number of WriteInvalidateReq hits
system.iocache.ReadReq_misses::tsunami.ide          209                       # number of ReadReq misses
system.iocache.ReadReq_misses::total              209                       # number of ReadReq misses
system.iocache.WriteInvalidateReq_misses::tsunami.ide           26                       # number of WriteInvalidateReq misses
system.iocache.WriteInvalidateReq_misses::total           26                       # number of WriteInvalidateReq misses
system.iocache.demand_misses::tsunami.ide          209                       # number of demand (read+write) misses
system.iocache.demand_misses::total               209                       # number of demand (read+write) misses
system.iocache.overall_misses::tsunami.ide          209                       # number of overall misses
system.iocache.overall_misses::total              209                       # number of overall misses
system.iocache.ReadReq_miss_latency::tsunami.ide     32572604                       # number of ReadReq miss cycles
system.iocache.ReadReq_miss_latency::total     32572604                       # number of ReadReq miss cycles
system.iocache.demand_miss_latency::tsunami.ide     32572604                       # number of demand (read+write) miss cycles
system.iocache.demand_miss_latency::total     32572604                       # number of demand (read+write) miss cycles
system.iocache.overall_miss_latency::tsunami.ide     32572604                       # number of overall miss cycles
system.iocache.overall_miss_latency::total     32572604                       # number of overall miss cycles
system.iocache.ReadReq_accesses::tsunami.ide          209                       # number of ReadReq accesses(hits+misses)
system.iocache.ReadReq_accesses::total            209                       # number of ReadReq accesses(hits+misses)
system.iocache.WriteInvalidateReq_accesses::tsunami.ide        44282                       # number of WriteInvalidateReq accesses(hits+misses)
system.iocache.WriteInvalidateReq_accesses::total        44282                       # number of WriteInvalidateReq accesses(hits+misses)
system.iocache.demand_accesses::tsunami.ide          209                       # number of demand (read+write) accesses
system.iocache.demand_accesses::total             209                       # number of demand (read+write) accesses
system.iocache.overall_accesses::tsunami.ide          209                       # number of overall (read+write) accesses
system.iocache.overall_accesses::total            209                       # number of overall (read+write) accesses
system.iocache.ReadReq_miss_rate::tsunami.ide            1                       # miss rate for ReadReq accesses
system.iocache.ReadReq_miss_rate::total             1                       # miss rate for ReadReq accesses
system.iocache.WriteInvalidateReq_miss_rate::tsunami.ide     0.000587                       # miss rate for WriteInvalidateReq accesses
system.iocache.WriteInvalidateReq_miss_rate::total     0.000587                       # miss rate for WriteInvalidateReq accesses
system.iocache.demand_miss_rate::tsunami.ide            1                       # miss rate for demand accesses
system.iocache.demand_miss_rate::total              1                       # miss rate for demand accesses
system.iocache.overall_miss_rate::tsunami.ide            1                       # miss rate for overall accesses
system.iocache.overall_miss_rate::total             1                       # miss rate for overall accesses
system.iocache.ReadReq_avg_miss_latency::tsunami.ide 155849.779904                       # average ReadReq miss latency
system.iocache.ReadReq_avg_miss_latency::total 155849.779904                       # average ReadReq miss latency
system.iocache.demand_avg_miss_latency::tsunami.ide 155849.779904                       # average overall miss latency
system.iocache.demand_avg_miss_latency::total 155849.779904                       # average overall miss latency
system.iocache.overall_avg_miss_latency::tsunami.ide 155849.779904                       # average overall miss latency
system.iocache.overall_avg_miss_latency::total 155849.779904                       # average overall miss latency
system.iocache.blocked_cycles::no_mshrs           428                       # number of cycles access was blocked
system.iocache.blocked_cycles::no_targets            0                       # number of cycles access was blocked
system.iocache.blocked::no_mshrs                   45                       # number of cycles access was blocked
system.iocache.blocked::no_targets                  0                       # number of cycles access was blocked
system.iocache.avg_blocked_cycles::no_mshrs     9.511111                       # average number of cycles each access was blocked
system.iocache.avg_blocked_cycles::no_targets          nan                       # average number of cycles each access was blocked
system.iocache.fast_writes                      44256                       # number of fast writes performed
system.iocache.cache_copies                         0                       # number of cache copies performed
system.iocache.ReadReq_mshr_misses::tsunami.ide          209                       # number of ReadReq MSHR misses
system.iocache.ReadReq_mshr_misses::total          209                       # number of ReadReq MSHR misses
system.iocache.WriteInvalidateReq_mshr_misses::tsunami.ide        44256                       # number of WriteInvalidateReq MSHR misses
system.iocache.WriteInvalidateReq_mshr_misses::total        44256                       # number of WriteInvalidateReq MSHR misses
system.iocache.demand_mshr_misses::tsunami.ide          209                       # number of demand (read+write) MSHR misses
system.iocache.demand_mshr_misses::total          209                       # number of demand (read+write) MSHR misses
system.iocache.overall_mshr_misses::tsunami.ide          209                       # number of overall MSHR misses
system.iocache.overall_mshr_misses::total          209                       # number of overall MSHR misses
system.iocache.ReadReq_mshr_miss_latency::tsunami.ide     21676104                       # number of ReadReq MSHR miss cycles
system.iocache.ReadReq_mshr_miss_latency::total     21676104                       # number of ReadReq MSHR miss cycles
system.iocache.WriteInvalidateReq_mshr_miss_latency::tsunami.ide   3096882442                       # number of WriteInvalidateReq MSHR miss cycles
system.iocache.WriteInvalidateReq_mshr_miss_latency::total   3096882442                       # number of WriteInvalidateReq MSHR miss cycles
system.iocache.demand_mshr_miss_latency::tsunami.ide     21676104                       # number of demand (read+write) MSHR miss cycles
system.iocache.demand_mshr_miss_latency::total     21676104                       # number of demand (read+write) MSHR miss cycles
system.iocache.overall_mshr_miss_latency::tsunami.ide     21676104                       # number of overall MSHR miss cycles
system.iocache.overall_mshr_miss_latency::total     21676104                       # number of overall MSHR miss cycles
system.iocache.ReadReq_mshr_miss_rate::tsunami.ide            1                       # mshr miss rate for ReadReq accesses
system.iocache.ReadReq_mshr_miss_rate::total            1                       # mshr miss rate for ReadReq accesses
system.iocache.WriteInvalidateReq_mshr_miss_rate::tsunami.ide     0.999413                       # mshr miss rate for WriteInvalidateReq accesses
system.iocache.WriteInvalidateReq_mshr_miss_rate::total     0.999413                       # mshr miss rate for WriteInvalidateReq accesses
system.iocache.demand_mshr_miss_rate::tsunami.ide            1                       # mshr miss rate for demand accesses
system.iocache.demand_mshr_miss_rate::total            1                       # mshr miss rate for demand accesses
system.iocache.overall_mshr_miss_rate::tsunami.ide            1                       # mshr miss rate for overall accesses
system.iocache.overall_mshr_miss_rate::total            1                       # mshr miss rate for overall accesses
system.iocache.ReadReq_avg_mshr_miss_latency::tsunami.ide 103713.416268                       # average ReadReq mshr miss latency
system.iocache.ReadReq_avg_mshr_miss_latency::total 103713.416268                       # average ReadReq mshr miss latency
system.iocache.WriteInvalidateReq_avg_mshr_miss_latency::tsunami.ide 69976.555540                       # average WriteInvalidateReq mshr miss latency
system.iocache.WriteInvalidateReq_avg_mshr_miss_latency::total 69976.555540                       # average WriteInvalidateReq mshr miss latency
system.iocache.demand_avg_mshr_miss_latency::tsunami.ide 103713.416268                       # average overall mshr miss latency
system.iocache.demand_avg_mshr_miss_latency::total 103713.416268                       # average overall mshr miss latency
system.iocache.overall_avg_mshr_miss_latency::tsunami.ide 103713.416268                       # average overall mshr miss latency
system.iocache.overall_avg_mshr_miss_latency::total 103713.416268                       # average overall mshr miss latency
system.iocache.no_allocate_misses                   0                       # Number of misses that were no-allocate
system.disk0.dma_read_full_pages                    0                       # Number of full page size DMA reads (not PRD).
system.disk0.dma_read_bytes                      4096                       # Number of bytes transfered via DMA reads (not PRD).
system.disk0.dma_read_txs                           1                       # Number of DMA read transactions (not PRD).
system.disk0.dma_write_full_pages                 326                       # Number of full page size DMA writes.
system.disk0.dma_write_bytes                  2824192                       # Number of bytes transfered via DMA writes.
system.disk0.dma_write_txs                        365                       # Number of DMA write transactions.
system.disk2.dma_read_full_pages                    0                       # Number of full page size DMA reads (not PRD).
system.disk2.dma_read_bytes                         0                       # Number of bytes transfered via DMA reads (not PRD).
system.disk2.dma_read_txs                           0                       # Number of DMA read transactions (not PRD).
system.disk2.dma_write_full_pages                   1                       # Number of full page size DMA writes.
system.disk2.dma_write_bytes                     8192                       # Number of bytes transfered via DMA writes.
system.disk2.dma_write_txs                          1                       # Number of DMA write transactions.
system.cpu.branchPred.lookups                26916908                       # Number of BP lookups
system.cpu.branchPred.condPredicted          22789473                       # Number of conditional branches predicted
system.cpu.branchPred.condIncorrect            605311                       # Number of conditional branches incorrect
system.cpu.branchPred.BTBLookups             17870026                       # Number of BTB lookups
system.cpu.branchPred.BTBHits                10256299                       # Number of BTB hits
system.cpu.branchPred.BTBCorrect                    0                       # Number of correct BTB predictions (this stat may not work properly.
system.cpu.branchPred.BTBHitPct             57.393867                       # BTB Hit Percentage
system.cpu.branchPred.usedRAS                 1696847                       # Number of times the RAS was used to get a target.
system.cpu.branchPred.RASInCorrect              39813                       # Number of incorrect RAS predictions.
system.cpu_voltage_domain.voltage                   1                       # Voltage in Volts
system.cpu_clk_domain.clock                       500                       # Clock period in ticks
system.cpu.dtb.fetch_hits                           0                       # ITB hits
system.cpu.dtb.fetch_misses                         0                       # ITB misses
system.cpu.dtb.fetch_acv                            0                       # ITB acv
system.cpu.dtb.fetch_accesses                       0                       # ITB accesses
system.cpu.dtb.read_hits                     17874207                       # DTB read hits
system.cpu.dtb.read_misses                      81226                       # DTB read misses
system.cpu.dtb.read_acv                           223                       # DTB read access violations
system.cpu.dtb.read_accesses                  1207760                       # DTB read accesses
system.cpu.dtb.write_hits                     8674490                       # DTB write hits
system.cpu.dtb.write_misses                     12966                       # DTB write misses
system.cpu.dtb.write_acv                          525                       # DTB write access violations
system.cpu.dtb.write_accesses                  410331                       # DTB write accesses
system.cpu.dtb.data_hits                     26548697                       # DTB hits
system.cpu.dtb.data_misses                      94192                       # DTB misses
system.cpu.dtb.data_acv                           748                       # DTB access violations
system.cpu.dtb.data_accesses                  1618091                       # DTB accesses
system.cpu.itb.fetch_hits                     2168694                       # ITB hits
system.cpu.itb.fetch_misses                     26682                       # ITB misses
system.cpu.itb.fetch_acv                          639                       # ITB acv
system.cpu.itb.fetch_accesses                 2195376                       # ITB accesses
system.cpu.itb.read_hits                            0                       # DTB read hits
system.cpu.itb.read_misses                          0                       # DTB read misses
system.cpu.itb.read_acv                             0                       # DTB read access violations
system.cpu.itb.read_accesses                        0                       # DTB read accesses
system.cpu.itb.write_hits                           0                       # DTB write hits
system.cpu.itb.write_misses                         0                       # DTB write misses
system.cpu.itb.write_acv                            0                       # DTB write access violations
system.cpu.itb.write_accesses                       0                       # DTB write accesses
system.cpu.itb.data_hits                            0                       # DTB hits
system.cpu.itb.data_misses                          0                       # DTB misses
system.cpu.itb.data_acv                             0                       # DTB access violations
system.cpu.itb.data_accesses                        0                       # DTB accesses
system.cpu.numCycles                        361935022                       # number of cpu cycles simulated
system.cpu.numWorkItemsStarted                      0                       # number of work items this cpu started
system.cpu.numWorkItemsCompleted                    0                       # number of work items this cpu completed
system.cpu.fetch.icacheStallCycles           57011904                       # Number of cycles fetch is stalled on an Icache miss
system.cpu.fetch.Insts                      119860156                       # Number of instructions fetch has processed
system.cpu.fetch.Branches                    26916908                       # Number of branches that fetch encountered
system.cpu.fetch.predictedBranches           11953146                       # Number of branches that fetch has predicted taken
system.cpu.fetch.Cycles                     211210239                       # Number of cycles fetch has run and was not squashing or blocked
system.cpu.fetch.SquashCycles                 1780102                       # Number of cycles fetch has spent squashing
system.cpu.fetch.TlbCycles                       2083                       # Number of cycles fetch has spent waiting for tlb
system.cpu.fetch.MiscStallCycles                59992                       # Number of cycles fetch has spent waiting on interrupts, or bad addresses, or out of MSHRs
system.cpu.fetch.PendingTrapStallCycles       1214322                       # Number of stall cycles due to pending traps
system.cpu.fetch.PendingQuiesceStallCycles       437914                       # Number of stall cycles due to pending quiesce instructions
system.cpu.fetch.IcacheWaitRetryStallCycles          916                       # Number of stall cycles due to full MSHR
system.cpu.fetch.CacheLines                  15683499                       # Number of cache lines fetched
system.cpu.fetch.IcacheSquashes                443455                       # Number of outstanding Icache misses that were squashed
system.cpu.fetch.ItlbSquashes                      13                       # Number of outstanding ITLB misses that were squashed
system.cpu.fetch.rateDist::samples          270827434                       # Number of instructions fetched each cycle (Total)
system.cpu.fetch.rateDist::mean              0.442570                       # Number of instructions fetched each cycle (Total)
system.cpu.fetch.rateDist::stdev             1.591720                       # Number of instructions fetched each cycle (Total)
system.cpu.fetch.rateDist::underflows               0      0.00%      0.00% # Number of instructions fetched each cycle (Total)
system.cpu.fetch.rateDist::0                245870037     90.78%     90.78% # Number of instructions fetched each cycle (Total)
system.cpu.fetch.rateDist::1                  2842539      1.05%     91.83% # Number of instructions fetched each cycle (Total)
system.cpu.fetch.rateDist::2                  3599548      1.33%     93.16% # Number of instructions fetched each cycle (Total)
system.cpu.fetch.rateDist::3                  2034856      0.75%     93.91% # Number of instructions fetched each cycle (Total)
system.cpu.fetch.rateDist::4                  4999466      1.85%     95.76% # Number of instructions fetched each cycle (Total)
system.cpu.fetch.rateDist::5                  1179849      0.44%     96.20% # Number of instructions fetched each cycle (Total)
system.cpu.fetch.rateDist::6                  1888320      0.70%     96.89% # Number of instructions fetched each cycle (Total)
system.cpu.fetch.rateDist::7                   815628      0.30%     97.19% # Number of instructions fetched each cycle (Total)
system.cpu.fetch.rateDist::8                  7597191      2.81%    100.00% # Number of instructions fetched each cycle (Total)
system.cpu.fetch.rateDist::overflows                0      0.00%    100.00% # Number of instructions fetched each cycle (Total)
system.cpu.fetch.rateDist::min_value                0                       # Number of instructions fetched each cycle (Total)
system.cpu.fetch.rateDist::max_value                8                       # Number of instructions fetched each cycle (Total)
system.cpu.fetch.rateDist::total            270827434                       # Number of instructions fetched each cycle (Total)
system.cpu.fetch.branchRate                  0.074369                       # Number of branch fetches per cycle
system.cpu.fetch.rate                        0.331165                       # Number of inst fetches per cycle
system.cpu.decode.IdleCycles                 42324162                       # Number of cycles decode is idle
system.cpu.decode.BlockedCycles             209699366                       # Number of cycles decode is blocked
system.cpu.decode.RunCycles                  13876377                       # Number of cycles decode is running
system.cpu.decode.UnblockCycles               4112414                       # Number of cycles decode is unblocking
system.cpu.decode.SquashCycles                 815114                       # Number of cycles decode is squashing
system.cpu.decode.BranchResolved               916774                       # Number of times decode resolved a branch
system.cpu.decode.BranchMispred                 75386                       # Number of times decode detected a branch misprediction
system.cpu.decode.DecodedInsts              107316049                       # Number of instructions handled by decode
system.cpu.decode.SquashedInsts                211355                       # Number of squashed instructions handled by decode
system.cpu.rename.SquashCycles                 815114                       # Number of cycles rename is squashing
system.cpu.rename.IdleCycles                 44060441                       # Number of cycles rename is idle
system.cpu.rename.BlockCycles               151790014                       # Number of cycles rename is blocking
system.cpu.rename.serializeStallCycles       39606098                       # count of cycles rename stalled for serializing inst
system.cpu.rename.RunCycles                  15901162                       # Number of cycles rename is running
system.cpu.rename.UnblockCycles              18654603                       # Number of cycles rename is unblocking
system.cpu.rename.RenamedInsts              104142800                       # Number of instructions processed by rename
system.cpu.rename.ROBFullEvents                236493                       # Number of times rename has blocked due to ROB full
system.cpu.rename.IQFullEvents                8227198                       # Number of times rename has blocked due to IQ full
system.cpu.rename.LQFullEvents                1826575                       # Number of times rename has blocked due to LQ full
system.cpu.rename.SQFullEvents                6154551                       # Number of times rename has blocked due to SQ full
system.cpu.rename.RenamedOperands            75081667                       # Number of destination operands rename has renamed
system.cpu.rename.RenameLookups             133824534                       # Number of register rename lookups that rename has made
system.cpu.rename.int_rename_lookups        133624875                       # Number of integer rename lookups
system.cpu.rename.fp_rename_lookups            185495                       # Number of floating rename lookups
system.cpu.rename.CommittedMaps              65825209                       # Number of HB maps that are committed
system.cpu.rename.UndoneMaps                  9256450                       # Number of HB maps that are undone due to squashing
system.cpu.rename.serializingInsts            1957421                       # count of serializing insts renamed
system.cpu.rename.tempSerializingInsts         314386                       # count of temporary serializing insts renamed
system.cpu.rename.skidInsts                  27765462                       # count of insts added to the skid buffer
system.cpu.memDep0.insertedLoads             18071104                       # Number of loads inserted to the mem dependence unit.
system.cpu.memDep0.insertedStores             9081427                       # Number of stores inserted to the mem dependence unit.
system.cpu.memDep0.conflictingLoads           2276722                       # Number of conflicting loads.
system.cpu.memDep0.conflictingStores          1579199                       # Number of conflicting stores.
system.cpu.iq.iqInstsAdded                   97698605                       # Number of instructions added to the IQ (excludes non-spec)
system.cpu.iq.iqNonSpecInstsAdded             2663599                       # Number of non-speculative instructions added to the IQ
system.cpu.iq.iqInstsIssued                  95743109                       # Number of instructions issued
system.cpu.iq.iqSquashedInstsIssued             81059                       # Number of squashed instructions issued
system.cpu.iq.iqSquashedInstsExamined        11538370                       # Number of squashed instructions iterated over during squash; mainly for profiling
system.cpu.iq.iqSquashedOperandsExamined      5752746                       # Number of squashed operands that are examined and possibly removed from graph
system.cpu.iq.iqSquashedNonSpecRemoved        1684710                       # Number of squashed non-spec instructions that were removed
system.cpu.iq.issued_per_cycle::samples     270827434                       # Number of insts issued each cycle
system.cpu.iq.issued_per_cycle::mean         0.353521                       # Number of insts issued each cycle
system.cpu.iq.issued_per_cycle::stdev        1.036936                       # Number of insts issued each cycle
system.cpu.iq.issued_per_cycle::underflows            0      0.00%      0.00% # Number of insts issued each cycle
system.cpu.iq.issued_per_cycle::0           228486254     84.37%     84.37% # Number of insts issued each cycle
system.cpu.iq.issued_per_cycle::1            20182748      7.45%     91.82% # Number of insts issued each cycle
system.cpu.iq.issued_per_cycle::2             8052154      2.97%     94.79% # Number of insts issued each cycle
system.cpu.iq.issued_per_cycle::3             4880553      1.80%     96.59% # Number of insts issued each cycle
system.cpu.iq.issued_per_cycle::4             4771430      1.76%     98.36% # Number of insts issued each cycle
system.cpu.iq.issued_per_cycle::5             2201101      0.81%     99.17% # Number of insts issued each cycle
system.cpu.iq.issued_per_cycle::6             1347692      0.50%     99.67% # Number of insts issued each cycle
system.cpu.iq.issued_per_cycle::7              606999      0.22%     99.89% # Number of insts issued each cycle
system.cpu.iq.issued_per_cycle::8              298503      0.11%    100.00% # Number of insts issued each cycle
system.cpu.iq.issued_per_cycle::overflows            0      0.00%    100.00% # Number of insts issued each cycle
system.cpu.iq.issued_per_cycle::min_value            0                       # Number of insts issued each cycle
system.cpu.iq.issued_per_cycle::max_value            8                       # Number of insts issued each cycle
system.cpu.iq.issued_per_cycle::total       270827434                       # Number of insts issued each cycle
system.cpu.iq.fu_full::No_OpClass                   0      0.00%      0.00% # attempts to use FU when none available
system.cpu.iq.fu_full::IntAlu                  363241     21.75%     21.75% # attempts to use FU when none available
system.cpu.iq.fu_full::IntMult                      4      0.00%     21.75% # attempts to use FU when none available
system.cpu.iq.fu_full::IntDiv                       0      0.00%     21.75% # attempts to use FU when none available
system.cpu.iq.fu_full::FloatAdd                     0      0.00%     21.75% # attempts to use FU when none available
system.cpu.iq.fu_full::FloatCmp                     0      0.00%     21.75% # attempts to use FU when none available
system.cpu.iq.fu_full::FloatCvt                     0      0.00%     21.75% # attempts to use FU when none available
system.cpu.iq.fu_full::FloatMult                    0      0.00%     21.75% # attempts to use FU when none available
system.cpu.iq.fu_full::FloatDiv                     0      0.00%     21.75% # attempts to use FU when none available
system.cpu.iq.fu_full::FloatSqrt                    0      0.00%     21.75% # attempts to use FU when none available
system.cpu.iq.fu_full::SimdAdd                      0      0.00%     21.75% # attempts to use FU when none available
system.cpu.iq.fu_full::SimdAddAcc                   0      0.00%     21.75% # attempts to use FU when none available
system.cpu.iq.fu_full::SimdAlu                      0      0.00%     21.75% # attempts to use FU when none available
system.cpu.iq.fu_full::SimdCmp                      0      0.00%     21.75% # attempts to use FU when none available
system.cpu.iq.fu_full::SimdCvt                      0      0.00%     21.75% # attempts to use FU when none available
system.cpu.iq.fu_full::SimdMisc                     0      0.00%     21.75% # attempts to use FU when none available
system.cpu.iq.fu_full::SimdMult                     0      0.00%     21.75% # attempts to use FU when none available
system.cpu.iq.fu_full::SimdMultAcc                  0      0.00%     21.75% # attempts to use FU when none available
system.cpu.iq.fu_full::SimdShift                    0      0.00%     21.75% # attempts to use FU when none available
system.cpu.iq.fu_full::SimdShiftAcc                 0      0.00%     21.75% # attempts to use FU when none available
system.cpu.iq.fu_full::SimdSqrt                     0      0.00%     21.75% # attempts to use FU when none available
system.cpu.iq.fu_full::SimdFloatAdd                 0      0.00%     21.75% # attempts to use FU when none available
system.cpu.iq.fu_full::SimdFloatAlu                 0      0.00%     21.75% # attempts to use FU when none available
system.cpu.iq.fu_full::SimdFloatCmp                 0      0.00%     21.75% # attempts to use FU when none available
system.cpu.iq.fu_full::SimdFloatCvt                 0      0.00%     21.75% # attempts to use FU when none available
system.cpu.iq.fu_full::SimdFloatDiv                 0      0.00%     21.75% # attempts to use FU when none available
system.cpu.iq.fu_full::SimdFloatMisc                0      0.00%     21.75% # attempts to use FU when none available
system.cpu.iq.fu_full::SimdFloatMult                0      0.00%     21.75% # attempts to use FU when none available
system.cpu.iq.fu_full::SimdFloatMultAcc             0      0.00%     21.75% # attempts to use FU when none available
system.cpu.iq.fu_full::SimdFloatSqrt                0      0.00%     21.75% # attempts to use FU when none available
system.cpu.iq.fu_full::MemRead                 799692     47.89%     69.65% # attempts to use FU when none available
system.cpu.iq.fu_full::MemWrite                506784     30.35%    100.00% # attempts to use FU when none available
system.cpu.iq.fu_full::IprAccess                    0      0.00%    100.00% # attempts to use FU when none available
system.cpu.iq.fu_full::InstPrefetch                 0      0.00%    100.00% # attempts to use FU when none available
system.cpu.iq.FU_type_0::No_OpClass              8385      0.01%      0.01% # Type of FU issued
system.cpu.iq.FU_type_0::IntAlu              67027449     70.01%     70.02% # Type of FU issued
system.cpu.iq.FU_type_0::IntMult               159995      0.17%     70.18% # Type of FU issued
system.cpu.iq.FU_type_0::IntDiv                     0      0.00%     70.18% # Type of FU issued
system.cpu.iq.FU_type_0::FloatAdd               85879      0.09%     70.27% # Type of FU issued
system.cpu.iq.FU_type_0::FloatCmp                   0      0.00%     70.27% # Type of FU issued
system.cpu.iq.FU_type_0::FloatCvt                   0      0.00%     70.27% # Type of FU issued
system.cpu.iq.FU_type_0::FloatMult                  0      0.00%     70.27% # Type of FU issued
system.cpu.iq.FU_type_0::FloatDiv                4191      0.00%     70.28% # Type of FU issued
system.cpu.iq.FU_type_0::FloatSqrt                  0      0.00%     70.28% # Type of FU issued
system.cpu.iq.FU_type_0::SimdAdd                    0      0.00%     70.28% # Type of FU issued
system.cpu.iq.FU_type_0::SimdAddAcc                 0      0.00%     70.28% # Type of FU issued
system.cpu.iq.FU_type_0::SimdAlu                    0      0.00%     70.28% # Type of FU issued
system.cpu.iq.FU_type_0::SimdCmp                    0      0.00%     70.28% # Type of FU issued
system.cpu.iq.FU_type_0::SimdCvt                    0      0.00%     70.28% # Type of FU issued
system.cpu.iq.FU_type_0::SimdMisc                   0      0.00%     70.28% # Type of FU issued
system.cpu.iq.FU_type_0::SimdMult                   0      0.00%     70.28% # Type of FU issued
system.cpu.iq.FU_type_0::SimdMultAcc                0      0.00%     70.28% # Type of FU issued
system.cpu.iq.FU_type_0::SimdShift                  0      0.00%     70.28% # Type of FU issued
system.cpu.iq.FU_type_0::SimdShiftAcc               0      0.00%     70.28% # Type of FU issued
system.cpu.iq.FU_type_0::SimdSqrt                   0      0.00%     70.28% # Type of FU issued
system.cpu.iq.FU_type_0::SimdFloatAdd               0      0.00%     70.28% # Type of FU issued
system.cpu.iq.FU_type_0::SimdFloatAlu               0      0.00%     70.28% # Type of FU issued
system.cpu.iq.FU_type_0::SimdFloatCmp               0      0.00%     70.28% # Type of FU issued
system.cpu.iq.FU_type_0::SimdFloatCvt               0      0.00%     70.28% # Type of FU issued
system.cpu.iq.FU_type_0::SimdFloatDiv               0      0.00%     70.28% # Type of FU issued
system.cpu.iq.FU_type_0::SimdFloatMisc              0      0.00%     70.28% # Type of FU issued
system.cpu.iq.FU_type_0::SimdFloatMult              0      0.00%     70.28% # Type of FU issued
system.cpu.iq.FU_type_0::SimdFloatMultAcc            0      0.00%     70.28% # Type of FU issued
system.cpu.iq.FU_type_0::SimdFloatSqrt              0      0.00%     70.28% # Type of FU issued
system.cpu.iq.FU_type_0::MemRead             18537778     19.36%     89.64% # Type of FU issued
system.cpu.iq.FU_type_0::MemWrite             8845255      9.24%     98.88% # Type of FU issued
system.cpu.iq.FU_type_0::IprAccess            1074177      1.12%    100.00% # Type of FU issued
system.cpu.iq.FU_type_0::InstPrefetch               0      0.00%    100.00% # Type of FU issued
system.cpu.iq.FU_type_0::total               95743109                       # Type of FU issued
system.cpu.iq.rate                           0.264531                       # Inst issue rate
system.cpu.iq.fu_busy_cnt                     1669721                       # FU busy when requested
system.cpu.iq.fu_busy_rate                   0.017440                       # FU busy rate (busy events/executed inst)
system.cpu.iq.int_inst_queue_reads          463198472                       # Number of integer instruction queue reads
system.cpu.iq.int_inst_queue_writes         111521673                       # Number of integer instruction queue writes
system.cpu.iq.int_inst_queue_wakeup_accesses     93368962                       # Number of integer instruction queue wakeup accesses
system.cpu.iq.fp_inst_queue_reads              865959                       # Number of floating instruction queue reads
system.cpu.iq.fp_inst_queue_writes             412761                       # Number of floating instruction queue writes
system.cpu.iq.fp_inst_queue_wakeup_accesses       403381                       # Number of floating instruction queue wakeup accesses
system.cpu.iq.int_alu_accesses               96942984                       # Number of integer alu accesses
system.cpu.iq.fp_alu_accesses                  461461                       # Number of floating point alu accesses
system.cpu.iew.lsq.thread0.forwLoads           880540                       # Number of loads that had data forwarded from stores
system.cpu.iew.lsq.thread0.invAddrLoads             0                       # Number of loads ignored due to an invalid address
system.cpu.iew.lsq.thread0.squashedLoads      2221928                       # Number of loads squashed
system.cpu.iew.lsq.thread0.ignoredResponses         3099                       # Number of memory responses ignored because the instruction is squashed
system.cpu.iew.lsq.thread0.memOrderViolation        34465                       # Number of memory ordering violations
system.cpu.iew.lsq.thread0.squashedStores       875502                       # Number of stores squashed
[...]
system.cpu.dcache.overall_misses::cpu.data        94623                       # number of overall misses
system.cpu.dcache.overall_misses::total         94623                       # number of overall misses
system.cpu.dcache.ReadReq_miss_latency::cpu.data   1562504999                       # number of ReadReq miss cycles
system.cpu.dcache.ReadReq_miss_latency::total   1562504999                       # number of ReadReq miss cycles
system.cpu.dcache.WriteReq_miss_latency::cpu.data   4380845206                       # number of WriteReq miss cycles
system.cpu.dcache.WriteReq_miss_latency::total   4380845206                       # number of WriteReq miss cycles
system.cpu.dcache.LoadLockedReq_miss_latency::cpu.data     22449750                       # number of LoadLockedReq miss cycles
system.cpu.dcache.LoadLockedReq_miss_latency::total     22449750                       # number of LoadLockedReq miss cycles
system.cpu.dcache.demand_miss_latency::cpu.data   5943350205                       # number of demand (read+write) miss cycles
system.cpu.dcache.demand_miss_latency::total   5943350205                       # number of demand (read+write) miss cycles
system.cpu.dcache.overall_miss_latency::cpu.data   5943350205                       # number of overall miss cycles
system.cpu.dcache.overall_miss_latency::total   5943350205                       # number of overall miss cycles
system.cpu.dcache.ReadReq_accesses::cpu.data       153630                       # number of ReadReq accesses(hits+misses)
system.cpu.dcache.ReadReq_accesses::total       153630                       # number of ReadReq accesses(hits+misses)
system.cpu.dcache.WriteReq_accesses::cpu.data       128136                       # number of WriteReq accesses(hits+misses)
system.cpu.dcache.WriteReq_accesses::total       128136                       # number of WriteReq accesses(hits+misses)
system.cpu.dcache.LoadLockedReq_accesses::cpu.data         2664                       # number of LoadLockedReq accesses(hits+misses)
system.cpu.dcache.LoadLockedReq_accesses::total         2664                       # number of LoadLockedReq accesses(hits+misses)
system.cpu.dcache.StoreCondReq_accesses::cpu.data         2418                       # number of StoreCondReq accesses(hits+misses)
system.cpu.dcache.StoreCondReq_accesses::total         2418                       # number of StoreCondReq accesses(hits+misses)
system.cpu.dcache.demand_accesses::cpu.data       281766                       # number of demand (read+write) accesses
system.cpu.dcache.demand_accesses::total       281766                       # number of demand (read+write) accesses
system.cpu.dcache.overall_accesses::cpu.data       281766                       # number of overall (read+write) accesses
system.cpu.dcache.overall_accesses::total       281766                       # number of overall (read+write) accesses
system.cpu.dcache.ReadReq_miss_rate::cpu.data     0.173566                       # miss rate for ReadReq accesses
system.cpu.dcache.ReadReq_miss_rate::total     0.173566                       # miss rate for ReadReq accesses
system.cpu.dcache.WriteReq_miss_rate::cpu.data     0.530358                       # miss rate for WriteReq accesses
system.cpu.dcache.WriteReq_miss_rate::total     0.530358                       # miss rate for WriteReq accesses
system.cpu.dcache.LoadLockedReq_miss_rate::cpu.data     0.131381                       # miss rate for LoadLockedReq accesses
system.cpu.dcache.LoadLockedReq_miss_rate::total     0.131381                       # miss rate for LoadLockedReq accesses
system.cpu.dcache.demand_miss_rate::cpu.data     0.335821                       # miss rate for demand accesses
system.cpu.dcache.demand_miss_rate::total     0.335821                       # miss rate for demand accesses
system.cpu.dcache.overall_miss_rate::cpu.data     0.335821                       # miss rate for overall accesses
system.cpu.dcache.overall_miss_rate::total     0.335821                       # miss rate for overall accesses
system.cpu.dcache.ReadReq_avg_miss_latency::cpu.data 58597.599812                       # average ReadReq miss latency
system.cpu.dcache.ReadReq_avg_miss_latency::total 58597.599812                       # average ReadReq miss latency
system.cpu.dcache.WriteReq_avg_miss_latency::cpu.data 64464.010212                       # average WriteReq miss latency
system.cpu.dcache.WriteReq_avg_miss_latency::total 64464.010212                       # average WriteReq miss latency
system.cpu.dcache.LoadLockedReq_avg_miss_latency::cpu.data 64142.142857                       # average LoadLockedReq miss latency
system.cpu.dcache.LoadLockedReq_avg_miss_latency::total 64142.142857                       # average LoadLockedReq miss latency
system.cpu.dcache.demand_avg_miss_latency::cpu.data 62810.840969                       # average overall miss latency
system.cpu.dcache.demand_avg_miss_latency::total 62810.840969                       # average overall miss latency
system.cpu.dcache.overall_avg_miss_latency::cpu.data 62810.840969                       # average overall miss latency
system.cpu.dcache.overall_avg_miss_latency::total 62810.840969                       # average overall miss latency
system.cpu.dcache.blocked_cycles::no_mshrs       281444                       # number of cycles access was blocked
system.cpu.dcache.blocked_cycles::no_targets           15                       # number of cycles access was blocked
system.cpu.dcache.blocked::no_mshrs             10344                       # number of cycles access was blocked
system.cpu.dcache.blocked::no_targets               1                       # number of cycles access was blocked
system.cpu.dcache.avg_blocked_cycles::no_mshrs    27.208430                       # average number of cycles each access was blocked
system.cpu.dcache.avg_blocked_cycles::no_targets           15                       # average number of cycles each access was blocked
system.cpu.dcache.fast_writes                       0                       # number of fast writes performed
system.cpu.dcache.cache_copies                      0                       # number of cache copies performed
system.cpu.dcache.writebacks::writebacks        10180                       # number of writebacks
system.cpu.dcache.writebacks::total             10180                       # number of writebacks
system.cpu.dcache.ReadReq_mshr_hits::cpu.data        19025                       # number of ReadReq MSHR hits
system.cpu.dcache.ReadReq_mshr_hits::total        19025                       # number of ReadReq MSHR hits
system.cpu.dcache.WriteReq_mshr_hits::cpu.data        59070                       # number of WriteReq MSHR hits
system.cpu.dcache.WriteReq_mshr_hits::total        59070                       # number of WriteReq MSHR hits
system.cpu.dcache.LoadLockedReq_mshr_hits::cpu.data          175                       # number of LoadLockedReq MSHR hits
system.cpu.dcache.LoadLockedReq_mshr_hits::total          175                       # number of LoadLockedReq MSHR hits
system.cpu.dcache.demand_mshr_hits::cpu.data        78095                       # number of demand (read+write) MSHR hits
system.cpu.dcache.demand_mshr_hits::total        78095                       # number of demand (read+write) MSHR hits
system.cpu.dcache.overall_mshr_hits::cpu.data        78095                       # number of overall MSHR hits
system.cpu.dcache.overall_mshr_hits::total        78095                       # number of overall MSHR hits
system.cpu.dcache.ReadReq_mshr_misses::cpu.data         7640                       # number of ReadReq MSHR misses
system.cpu.dcache.ReadReq_mshr_misses::total         7640                       # number of ReadReq MSHR misses
system.cpu.dcache.WriteReq_mshr_misses::cpu.data         8888                       # number of WriteReq MSHR misses
system.cpu.dcache.WriteReq_mshr_misses::total         8888                       # number of WriteReq MSHR misses
system.cpu.dcache.LoadLockedReq_mshr_misses::cpu.data          175                       # number of LoadLockedReq MSHR misses
system.cpu.dcache.LoadLockedReq_mshr_misses::total          175                       # number of LoadLockedReq MSHR misses
system.cpu.dcache.demand_mshr_misses::cpu.data        16528                       # number of demand (read+write) MSHR misses
system.cpu.dcache.demand_mshr_misses::total        16528                       # number of demand (read+write) MSHR misses
system.cpu.dcache.overall_mshr_misses::cpu.data        16528                       # number of overall MSHR misses
system.cpu.dcache.overall_mshr_misses::total        16528                       # number of overall MSHR misses
system.cpu.dcache.ReadReq_mshr_miss_latency::cpu.data    471349501                       # number of ReadReq MSHR miss cycles
system.cpu.dcache.ReadReq_mshr_miss_latency::total    471349501                       # number of ReadReq MSHR miss cycles
system.cpu.dcache.WriteReq_mshr_miss_latency::cpu.data    606484325                       # number of WriteReq MSHR miss cycles
system.cpu.dcache.WriteReq_mshr_miss_latency::total    606484325                       # number of WriteReq MSHR miss cycles
system.cpu.dcache.LoadLockedReq_mshr_miss_latency::cpu.data     10736250                       # number of LoadLockedReq MSHR miss cycles
system.cpu.dcache.LoadLockedReq_mshr_miss_latency::total     10736250                       # number of LoadLockedReq MSHR miss cycles
system.cpu.dcache.demand_mshr_miss_latency::cpu.data   1077833826                       # number of demand (read+write) MSHR miss cycles
system.cpu.dcache.demand_mshr_miss_latency::total   1077833826                       # number of demand (read+write) MSHR miss cycles
system.cpu.dcache.overall_mshr_miss_latency::cpu.data   1077833826                       # number of overall MSHR miss cycles
system.cpu.dcache.overall_mshr_miss_latency::total   1077833826                       # number of overall MSHR miss cycles
system.cpu.dcache.WriteReq_mshr_uncacheable_latency::cpu.data       201500                       # number of WriteReq MSHR uncacheable cycles
system.cpu.dcache.WriteReq_mshr_uncacheable_latency::total       201500                       # number of WriteReq MSHR uncacheable cycles
system.cpu.dcache.overall_mshr_uncacheable_latency::cpu.data       201500                       # number of overall MSHR uncacheable cycles
system.cpu.dcache.overall_mshr_uncacheable_latency::total       201500                       # number of overall MSHR uncacheable cycles
system.cpu.dcache.ReadReq_mshr_miss_rate::cpu.data     0.049730                       # mshr miss rate for ReadReq accesses
system.cpu.dcache.ReadReq_mshr_miss_rate::total     0.049730                       # mshr miss rate for ReadReq accesses
system.cpu.dcache.WriteReq_mshr_miss_rate::cpu.data     0.069364                       # mshr miss rate for WriteReq accesses
system.cpu.dcache.WriteReq_mshr_miss_rate::total     0.069364                       # mshr miss rate for WriteReq accesses
system.cpu.dcache.LoadLockedReq_mshr_miss_rate::cpu.data     0.065691                       # mshr miss rate for LoadLockedReq accesses
system.cpu.dcache.LoadLockedReq_mshr_miss_rate::total     0.065691                       # mshr miss rate for LoadLockedReq accesses
system.cpu.dcache.demand_mshr_miss_rate::cpu.data     0.058659                       # mshr miss rate for demand accesses
system.cpu.dcache.demand_mshr_miss_rate::total     0.058659                       # mshr miss rate for demand accesses
system.cpu.dcache.overall_mshr_miss_rate::cpu.data     0.058659                       # mshr miss rate for overall accesses
system.cpu.dcache.overall_mshr_miss_rate::total     0.058659                       # mshr miss rate for overall accesses
system.cpu.dcache.ReadReq_avg_mshr_miss_latency::cpu.data 61694.960864                       # average ReadReq mshr miss latency
system.cpu.dcache.ReadReq_avg_mshr_miss_latency::total 61694.960864                       # average ReadReq mshr miss latency
system.cpu.dcache.WriteReq_avg_mshr_miss_latency::cpu.data 68236.310194                       # average WriteReq mshr miss latency
system.cpu.dcache.WriteReq_avg_mshr_miss_latency::total 68236.310194                       # average WriteReq mshr miss latency
system.cpu.dcache.LoadLockedReq_avg_mshr_miss_latency::cpu.data        61350                       # average LoadLockedReq mshr miss latency
system.cpu.dcache.LoadLockedReq_avg_mshr_miss_latency::total        61350                       # average LoadLockedReq mshr miss latency
system.cpu.dcache.demand_avg_mshr_miss_latency::cpu.data 65212.598379                       # average overall mshr miss latency
system.cpu.dcache.demand_avg_mshr_miss_latency::total 65212.598379                       # average overall mshr miss latency
system.cpu.dcache.overall_avg_mshr_miss_latency::cpu.data 65212.598379                       # average overall mshr miss latency
system.cpu.dcache.overall_avg_mshr_miss_latency::total 65212.598379                       # average overall mshr miss latency
system.cpu.dcache.WriteReq_avg_mshr_uncacheable_latency::cpu.data          inf                       # average WriteReq mshr uncacheable latency
system.cpu.dcache.WriteReq_avg_mshr_uncacheable_latency::total          inf                       # average WriteReq mshr uncacheable latency
system.cpu.dcache.overall_avg_mshr_uncacheable_latency::cpu.data          inf                       # average overall mshr uncacheable latency
system.cpu.dcache.overall_avg_mshr_uncacheable_latency::total          inf                       # average overall mshr uncacheable latency
system.cpu.dcache.no_allocate_misses                0                       # Number of misses that were no-allocate
system.cpu.kern.inst.arm                            0                       # number of arm instructions executed
system.cpu.kern.inst.quiesce                        0                       # number of quiesce instructions executed
system.cpu.kern.inst.hwrei                       2568                       # number of hwrei instructions executed
system.cpu.kern.ipl_count::0                      534     48.99%     48.99% # number of times we switched to this ipl
system.cpu.kern.ipl_count::22                       1      0.09%     49.08% # number of times we switched to this ipl
system.cpu.kern.ipl_count::31                     555     50.92%    100.00% # number of times we switched to this ipl
system.cpu.kern.ipl_count::total                 1090                       # number of times we switched to this ipl
system.cpu.kern.ipl_good::0                       532     49.95%     49.95% # number of times we switched to this ipl from a different ipl
system.cpu.kern.ipl_good::22                        1      0.09%     50.05% # number of times we switched to this ipl from a different ipl
system.cpu.kern.ipl_good::31                      532     49.95%    100.00% # number of times we switched to this ipl from a different ipl
system.cpu.kern.ipl_good::total                  1065                       # number of times we switched to this ipl from a different ipl
system.cpu.kern.ipl_ticks::0                938042000     91.36%     91.36% # number of cycles we spent at this ipl
system.cpu.kern.ipl_ticks::22                 1041500      0.10%     91.46% # number of cycles we spent at this ipl
system.cpu.kern.ipl_ticks::31                87647500      8.54%    100.00% # number of cycles we spent at this ipl
system.cpu.kern.ipl_ticks::total           1026731000                       # number of cycles we spent at this ipl
system.cpu.kern.ipl_used::0                  0.996255                       # fraction of swpipl calls that actually changed the ipl
system.cpu.kern.ipl_used::22                        1                       # fraction of swpipl calls that actually changed the ipl
system.cpu.kern.ipl_used::31                 0.958559                       # fraction of swpipl calls that actually changed the ipl
system.cpu.kern.ipl_used::total              0.977064                       # fraction of swpipl calls that actually changed the ipl
system.cpu.kern.syscall::2                          1      5.88%      5.88% # number of syscalls executed
system.cpu.kern.syscall::3                          2     11.76%     17.65% # number of syscalls executed
system.cpu.kern.syscall::6                          2     11.76%     29.41% # number of syscalls executed
system.cpu.kern.syscall::17                         1      5.88%     35.29% # number of syscalls executed
system.cpu.kern.syscall::33                         1      5.88%     41.18% # number of syscalls executed
system.cpu.kern.syscall::45                         3     17.65%     58.82% # number of syscalls executed
system.cpu.kern.syscall::48                         1      5.88%     64.71% # number of syscalls executed
system.cpu.kern.syscall::59                         1      5.88%     70.59% # number of syscalls executed
system.cpu.kern.syscall::71                         4     23.53%     94.12% # number of syscalls executed
system.cpu.kern.syscall::74                         1      5.88%    100.00% # number of syscalls executed
system.cpu.kern.syscall::total                     17                       # number of syscalls executed
system.cpu.kern.callpal::swpctx                   118      9.39%      9.39% # number of callpals executed
system.cpu.kern.callpal::tbi                        6      0.48%      9.87% # number of callpals executed
system.cpu.kern.callpal::swpipl                   904     71.97%     81.85% # number of callpals executed
system.cpu.kern.callpal::rdps                       3      0.24%     82.09% # number of callpals executed
system.cpu.kern.callpal::wrusp                      1      0.08%     82.17% # number of callpals executed
system.cpu.kern.callpal::rdusp                      1      0.08%     82.25% # number of callpals executed
system.cpu.kern.callpal::rti                      185     14.73%     96.97% # number of callpals executed
system.cpu.kern.callpal::callsys                   34      2.71%     99.68% # number of callpals executed
system.cpu.kern.callpal::imb                        4      0.32%    100.00% # number of callpals executed
system.cpu.kern.callpal::total                   1256                       # number of callpals executed
system.cpu.kern.mode_switch::kernel               303                       # number of protection mode switches
system.cpu.kern.mode_switch::user                 182                       # number of protection mode switches
system.cpu.kern.mode_switch::idle                   0                       # number of protection mode switches
system.cpu.kern.mode_good::kernel                 182                      
system.cpu.kern.mode_good::user                   182                      
system.cpu.kern.mode_good::idle                     0                      
system.cpu.kern.mode_switch_good::kernel     0.600660                       # fraction of useful protection mode switches
system.cpu.kern.mode_switch_good::user              1                       # fraction of useful protection mode switches
system.cpu.kern.mode_switch_good::idle            nan                       # fraction of useful protection mode switches
system.cpu.kern.mode_switch_good::total      0.750515                       # fraction of useful protection mode switches
system.cpu.kern.mode_ticks::kernel          738231000     71.90%     71.90% # number of ticks spent at the given mode
system.cpu.kern.mode_ticks::user            288500000     28.10%    100.00% # number of ticks spent at the given mode
system.cpu.kern.mode_ticks::idle                    0      0.00%    100.00% # number of ticks spent at the given mode
system.cpu.kern.swap_context                      118                       # number of times the context was actually changed

---------- End Simulation Statistics   ----------
