
---------- Begin Simulation Statistics ----------
sim_seconds                                  2.292613                       # Number of seconds simulated
sim_ticks                                2292613054000                       # Number of ticks simulated
final_tick                               2292613054000                       # Number of ticks from beginning of simulation (restored from checkpoints and never reset)
sim_freq                                 1000000000000                       # Frequency of simulated ticks
host_inst_rate                                3588267                       # Simulator instruction rate (inst/s)
host_op_rate                                  3588265                       # Simulator op (including micro ops) rate (op/s)
host_tick_rate                            91412564076                       # Simulator tick rate (ticks/s)
host_mem_usage                                 453104                       # Number of bytes of host memory used
host_seconds                                    25.08                       # Real time elapsed on the host
sim_insts                                    89993096                       # Number of instructions simulated
sim_ops                                      89993096                       # Number of ops (including micro ops) simulated
system.voltage_domain.voltage                       1                       # Voltage in Volts
system.clk_domain.clock                          1000                       # Clock period in ticks
system.mem_ctrls.bytes_read::cpu.inst        77748416                       # Number of bytes read from this memory
system.mem_ctrls.bytes_read::cpu.data       186108800                       # Number of bytes read from this memory
system.mem_ctrls.bytes_read::tsunami.ide         4032                       # Number of bytes read from this memory
system.mem_ctrls.bytes_read::total          263861248                       # Number of bytes read from this memory
system.mem_ctrls.bytes_inst_read::cpu.inst     77748416                       # Number of instructions bytes read from this memory
system.mem_ctrls.bytes_inst_read::total      77748416                       # Number of instructions bytes read from this memory
system.mem_ctrls.bytes_written::writebacks     31078016                       # Number of bytes written to this memory
system.mem_ctrls.bytes_written::tsunami.ide      2832384                       # Number of bytes written to this memory
system.mem_ctrls.bytes_written::total        33910400                       # Number of bytes written to this memory
system.mem_ctrls.num_reads::cpu.inst          1214819                       # Number of read requests responded to by this memory
system.mem_ctrls.num_reads::cpu.data          2907950                       # Number of read requests responded to by this memory
system.mem_ctrls.num_reads::tsunami.ide            63                       # Number of read requests responded to by this memory
system.mem_ctrls.num_reads::total             4122832                       # Number of read requests responded to by this memory
system.mem_ctrls.num_writes::writebacks        485594                       # Number of write requests responded to by this memory
system.mem_ctrls.num_writes::tsunami.ide        44256                       # Number of write requests responded to by this memory
system.mem_ctrls.num_writes::total             529850                       # Number of write requests responded to by this memory
system.mem_ctrls.bw_read::cpu.inst           33912577                       # Total read bandwidth from this memory (bytes/s)
system.mem_ctrls.bw_read::cpu.data           81177589                       # Total read bandwidth from this memory (bytes/s)
system.mem_ctrls.bw_read::tsunami.ide            1759                       # Total read bandwidth from this memory (bytes/s)
system.mem_ctrls.bw_read::total             115091924                       # Total read bandwidth from this memory (bytes/s)
system.mem_ctrls.bw_inst_read::cpu.inst      33912577                       # Instruction read bandwidth from this memory (bytes/s)
system.mem_ctrls.bw_inst_read::total         33912577                       # Instruction read bandwidth from this memory (bytes/s)
system.mem_ctrls.bw_write::writebacks        13555718                       # Write bandwidth from this memory (bytes/s)
system.mem_ctrls.bw_write::tsunami.ide        1235439                       # Write bandwidth from this memory (bytes/s)
system.mem_ctrls.bw_write::total             14791157                       # Write bandwidth from this memory (bytes/s)
system.mem_ctrls.bw_total::writebacks        13555718                       # Total bandwidth to/from this memory (bytes/s)
system.mem_ctrls.bw_total::cpu.inst          33912577                       # Total bandwidth to/from this memory (bytes/s)
system.mem_ctrls.bw_total::cpu.data          81177589                       # Total bandwidth to/from this memory (bytes/s)
system.mem_ctrls.bw_total::tsunami.ide        1237198                       # Total bandwidth to/from this memory (bytes/s)
system.mem_ctrls.bw_total::total            129883081                       # Total bandwidth to/from this memory (bytes/s)
system.mem_ctrls.readReqs                           0                       # Number of read requests accepted
system.mem_ctrls.writeReqs                          0                       # Number of write requests accepted
system.mem_ctrls.readBursts                         0                       # Number of DRAM read bursts, including those serviced by the write queue
system.mem_ctrls.writeBursts                        0                       # Number of DRAM write bursts, including those merged in the write queue
system.mem_ctrls.bytesReadDRAM                      0                       # Total number of bytes read from DRAM
system.mem_ctrls.bytesReadWrQ                       0                       # Total number of bytes read from write queue
system.mem_ctrls.bytesWritten                       0                       # Total number of bytes written to DRAM
system.mem_ctrls.bytesReadSys                       0                       # Total read bytes from the system interface side
system.mem_ctrls.bytesWrittenSys                    0                       # Total written bytes from the system interface side
system.mem_ctrls.servicedByWrQ                      0                       # Number of DRAM read bursts serviced by the write queue
system.mem_ctrls.mergedWrBursts                     0                       # Number of DRAM write bursts merged with an existing one
system.mem_ctrls.neitherReadNorWriteReqs            0                       # Number of requests that are neither read nor write
system.mem_ctrls.perBankRdBursts::0                 0                       # Per bank write bursts
system.mem_ctrls.perBankRdBursts::1                 0                       # Per bank write bursts
system.mem_ctrls.perBankRdBursts::2                 0                       # Per bank write bursts
system.mem_ctrls.perBankRdBursts::3                 0                       # Per bank write bursts
system.mem_ctrls.perBankRdBursts::4                 0                       # Per bank write bursts
system.mem_ctrls.perBankRdBursts::5                 0                       # Per bank write bursts
system.mem_ctrls.perBankRdBursts::6                 0                       # Per bank write bursts
system.mem_ctrls.perBankRdBursts::7                 0                       # Per bank write bursts
system.mem_ctrls.perBankRdBursts::8                 0                       # Per bank write bursts
system.mem_ctrls.perBankRdBursts::9                 0                       # Per bank write bursts
system.mem_ctrls.perBankRdBursts::10                0                       # Per bank write bursts
system.mem_ctrls.perBankRdBursts::11                0                       # Per bank write bursts
system.mem_ctrls.perBankRdBursts::12                0                       # Per bank write bursts
system.mem_ctrls.perBankRdBursts::13                0                       # Per bank write bursts
system.mem_ctrls.perBankRdBursts::14                0                       # Per bank write bursts
system.mem_ctrls.perBankRdBursts::15                0                       # Per bank write bursts
system.mem_ctrls.perBankWrBursts::0                 0                       # Per bank write bursts
system.mem_ctrls.perBankWrBursts::1                 0                       # Per bank write bursts
system.mem_ctrls.perBankWrBursts::2                 0                       # Per bank write bursts
system.mem_ctrls.perBankWrBursts::3                 0                       # Per bank write bursts
system.mem_ctrls.perBankWrBursts::4                 0                       # Per bank write bursts
system.mem_ctrls.perBankWrBursts::5                 0                       # Per bank write bursts
system.mem_ctrls.perBankWrBursts::6                 0                       # Per bank write bursts
system.mem_ctrls.perBankWrBursts::7                 0                       # Per bank write bursts
system.mem_ctrls.perBankWrBursts::8                 0                       # Per bank write bursts
system.mem_ctrls.perBankWrBursts::9                 0                       # Per bank write bursts
system.mem_ctrls.perBankWrBursts::10                0                       # Per bank write bursts
system.mem_ctrls.perBankWrBursts::11                0                       # Per bank write bursts
system.mem_ctrls.perBankWrBursts::12                0                       # Per bank write bursts
system.mem_ctrls.perBankWrBursts::13                0                       # Per bank write bursts
system.mem_ctrls.perBankWrBursts::14                0                       # Per bank write bursts
system.mem_ctrls.perBankWrBursts::15                0                       # Per bank write bursts
system.mem_ctrls.numRdRetry                         0                       # Number of times read queue was full causing retry
system.mem_ctrls.numWrRetry                         0                       # Number of times write queue was full causing retry
system.mem_ctrls.totGap                             0                       # Total gap between requests
system.mem_ctrls.readPktSize::0                     0                       # Read request sizes (log2)
system.mem_ctrls.readPktSize::1                     0                       # Read request sizes (log2)
system.mem_ctrls.readPktSize::2                     0                       # Read request sizes (log2)
system.mem_ctrls.readPktSize::3                     0                       # Read request sizes (log2)
system.mem_ctrls.readPktSize::4                     0                       # Read request sizes (log2)
system.mem_ctrls.readPktSize::5                     0                       # Read request sizes (log2)
system.mem_ctrls.readPktSize::6                     0                       # Read request sizes (log2)
system.mem_ctrls.writePktSize::0                    0                       # Write request sizes (log2)
system.mem_ctrls.writePktSize::1                    0                       # Write request sizes (log2)
system.mem_ctrls.writePktSize::2                    0                       # Write request sizes (log2)
system.mem_ctrls.writePktSize::3                    0                       # Write request sizes (log2)
system.mem_ctrls.writePktSize::4                    0                       # Write request sizes (log2)
system.mem_ctrls.writePktSize::5                    0                       # Write request sizes (log2)
system.mem_ctrls.writePktSize::6                    0                       # Write request sizes (log2)
system.mem_ctrls.rdQLenPdf::0                       0                       # What read queue length does an incoming req see
system.mem_ctrls.rdQLenPdf::1                       0                       # What read queue length does an incoming req see
system.mem_ctrls.rdQLenPdf::2                       0                       # What read queue length does an incoming req see
system.mem_ctrls.rdQLenPdf::3                       0                       # What read queue length does an incoming req see
system.mem_ctrls.rdQLenPdf::4                       0                       # What read queue length does an incoming req see
system.mem_ctrls.rdQLenPdf::5                       0                       # What read queue length does an incoming req see
system.mem_ctrls.rdQLenPdf::6                       0                       # What read queue length does an incoming req see
system.mem_ctrls.rdQLenPdf::7                       0                       # What read queue length does an incoming req see
system.mem_ctrls.rdQLenPdf::8                       0                       # What read queue length does an incoming req see
system.mem_ctrls.rdQLenPdf::9                       0                       # What read queue length does an incoming req see
system.mem_ctrls.rdQLenPdf::10                      0                       # What read queue length does an incoming req see
system.mem_ctrls.rdQLenPdf::11                      0                       # What read queue length does an incoming req see
system.mem_ctrls.rdQLenPdf::12                      0                       # What read queue length does an incoming req see
system.mem_ctrls.rdQLenPdf::13                      0                       # What read queue length does an incoming req see
system.mem_ctrls.rdQLenPdf::14                      0                       # What read queue length does an incoming req see
system.mem_ctrls.rdQLenPdf::15                      0                       # What read queue length does an incoming req see
system.mem_ctrls.rdQLenPdf::16                      0                       # What read queue length does an incoming req see
system.mem_ctrls.rdQLenPdf::17                      0                       # What read queue length does an incoming req see
system.mem_ctrls.rdQLenPdf::18                      0                       # What read queue length does an incoming req see
system.mem_ctrls.rdQLenPdf::19                      0                       # What read queue length does an incoming req see
system.mem_ctrls.rdQLenPdf::20                      0                       # What read queue length does an incoming req see
system.mem_ctrls.rdQLenPdf::21                      0                       # What read queue length does an incoming req see
system.mem_ctrls.rdQLenPdf::22                      0                       # What read queue length does an incoming req see
system.mem_ctrls.rdQLenPdf::23                      0                       # What read queue length does an incoming req see
system.mem_ctrls.rdQLenPdf::24                      0                       # What read queue length does an incoming req see
system.mem_ctrls.rdQLenPdf::25                      0                       # What read queue length does an incoming req see
system.mem_ctrls.rdQLenPdf::26                      0                       # What read queue length does an incoming req see
system.mem_ctrls.rdQLenPdf::27                      0                       # What read queue length does an incoming req see
system.mem_ctrls.rdQLenPdf::28                      0                       # What read queue length does an incoming req see
system.mem_ctrls.rdQLenPdf::29                      0                       # What read queue length does an incoming req see
system.mem_ctrls.rdQLenPdf::30                      0                       # What read queue length does an incoming req see
system.mem_ctrls.rdQLenPdf::31                      0                       # What read queue length does an incoming req see
system.mem_ctrls.wrQLenPdf::0                       0                       # What write queue length does an incoming req see
system.mem_ctrls.wrQLenPdf::1                       0                       # What write queue length does an incoming req see
system.mem_ctrls.wrQLenPdf::2                       0                       # What write queue length does an incoming req see
system.mem_ctrls.wrQLenPdf::3                       0                       # What write queue length does an incoming req see
system.mem_ctrls.wrQLenPdf::4                       0                       # What write queue length does an incoming req see
system.mem_ctrls.wrQLenPdf::5                       0                       # What write queue length does an incoming req see
system.mem_ctrls.wrQLenPdf::6                       0                       # What write queue length does an incoming req see
system.mem_ctrls.wrQLenPdf::7                       0                       # What write queue length does an incoming req see
system.mem_ctrls.wrQLenPdf::8                       0                       # What write queue length does an incoming req see
system.mem_ctrls.wrQLenPdf::9                       0                       # What write queue length does an incoming req see
system.mem_ctrls.wrQLenPdf::10                      0                       # What write queue length does an incoming req see
system.mem_ctrls.wrQLenPdf::11                      0                       # What write queue length does an incoming req see
system.mem_ctrls.wrQLenPdf::12                      0                       # What write queue length does an incoming req see
system.mem_ctrls.wrQLenPdf::13                      0                       # What write queue length does an incoming req see
system.mem_ctrls.wrQLenPdf::14                      0                       # What write queue length does an incoming req see
system.mem_ctrls.wrQLenPdf::15                      0                       # What write queue length does an incoming req see
system.mem_ctrls.wrQLenPdf::16                      0                       # What write queue length does an incoming req see
system.mem_ctrls.wrQLenPdf::17                      0                       # What write queue length does an incoming req see
system.mem_ctrls.wrQLenPdf::18                      0                       # What write queue length does an incoming req see
system.mem_ctrls.wrQLenPdf::19                      0                       # What write queue length does an incoming req see
system.mem_ctrls.wrQLenPdf::20                      0                       # What write queue length does an incoming req see
system.mem_ctrls.wrQLenPdf::21                      0                       # What write queue length does an incoming req see
system.mem_ctrls.wrQLenPdf::22                      0                       # What write queue length does an incoming req see
system.mem_ctrls.wrQLenPdf::23                      0                       # What write queue length does an incoming req see
system.mem_ctrls.wrQLenPdf::24                      0                       # What write queue length does an incoming req see
system.mem_ctrls.wrQLenPdf::25                      0                       # What write queue length does an incoming req see
system.mem_ctrls.wrQLenPdf::26                      0                       # What write queue length does an incoming req see
system.mem_ctrls.wrQLenPdf::27                      0                       # What write queue length does an incoming req see
system.mem_ctrls.wrQLenPdf::28                      0                       # What write queue length does an incoming req see
system.mem_ctrls.wrQLenPdf::29                      0                       # What write queue length does an incoming req see
system.mem_ctrls.wrQLenPdf::30                      0                       # What write queue length does an incoming req see
system.mem_ctrls.wrQLenPdf::31                      0                       # What write queue length does an incoming req see
system.mem_ctrls.wrQLenPdf::32                      0                       # What write queue length does an incoming req see
system.mem_ctrls.wrQLenPdf::33                      0                       # What write queue length does an incoming req see
system.mem_ctrls.wrQLenPdf::34                      0                       # What write queue length does an incoming req see
system.mem_ctrls.wrQLenPdf::35                      0                       # What write queue length does an incoming req see
system.mem_ctrls.wrQLenPdf::36                      0                       # What write queue length does an incoming req see
system.mem_ctrls.wrQLenPdf::37                      0                       # What write queue length does an incoming req see
system.mem_ctrls.wrQLenPdf::38                      0                       # What write queue length does an incoming req see
system.mem_ctrls.wrQLenPdf::39                      0                       # What write queue length does an incoming req see
system.mem_ctrls.wrQLenPdf::40                      0                       # What write queue length does an incoming req see
system.mem_ctrls.wrQLenPdf::41                      0                       # What write queue length does an incoming req see
system.mem_ctrls.wrQLenPdf::42                      0                       # What write queue length does an incoming req see
system.mem_ctrls.wrQLenPdf::43                      0                       # What write queue length does an incoming req see
system.mem_ctrls.wrQLenPdf::44                      0                       # What write queue length does an incoming req see
system.mem_ctrls.wrQLenPdf::45                      0                       # What write queue length does an incoming req see
system.mem_ctrls.wrQLenPdf::46                      0                       # What write queue length does an incoming req see
system.mem_ctrls.wrQLenPdf::47                      0                       # What write queue length does an incoming req see
system.mem_ctrls.wrQLenPdf::48                      0                       # What write queue length does an incoming req see
system.mem_ctrls.wrQLenPdf::49                      0                       # What write queue length does an incoming req see
system.mem_ctrls.wrQLenPdf::50                      0                       # What write queue length does an incoming req see
system.mem_ctrls.wrQLenPdf::51                      0                       # What write queue length does an incoming req see
system.mem_ctrls.wrQLenPdf::52                      0                       # What write queue length does an incoming req see
system.mem_ctrls.wrQLenPdf::53                      0                       # What write queue length does an incoming req see
system.mem_ctrls.wrQLenPdf::54                      0                       # What write queue length does an incoming req see
system.mem_ctrls.wrQLenPdf::55                      0                       # What write queue length does an incoming req see
system.mem_ctrls.wrQLenPdf::56                      0                       # What write queue length does an incoming req see
system.mem_ctrls.wrQLenPdf::57                      0                       # What write queue length does an incoming req see
system.mem_ctrls.wrQLenPdf::58                      0                       # What write queue length does an incoming req see
system.mem_ctrls.wrQLenPdf::59                      0                       # What write queue length does an incoming req see
system.mem_ctrls.wrQLenPdf::60                      0                       # What write queue length does an incoming req see
system.mem_ctrls.wrQLenPdf::61                      0                       # What write queue length does an incoming req see
system.mem_ctrls.wrQLenPdf::62                      0                       # What write queue length does an incoming req see
system.mem_ctrls.wrQLenPdf::63                      0                       # What write queue length does an incoming req see
system.mem_ctrls.totQLat                            0                       # Total ticks spent queuing
system.mem_ctrls.totMemAccLat                       0                       # Total ticks spent from burst creation until serviced by the DRAM
system.mem_ctrls.totBusLat                          0                       # Total ticks spent in databus transfers
system.mem_ctrls.avgQLat                          nan                       # Average queueing delay per DRAM burst
system.mem_ctrls.avgBusLat                        nan                       # Average bus latency per DRAM burst
system.mem_ctrls.avgMemAccLat                     nan                       # Average memory access latency per DRAM burst
system.mem_ctrls.avgRdBW                         0.00                       # Average DRAM read bandwidth in MiByte/s
system.mem_ctrls.avgWrBW                         0.00                       # Average achieved write bandwidth in MiByte/s
system.mem_ctrls.avgRdBWSys                      0.00                       # Average system read bandwidth in MiByte/s
system.mem_ctrls.avgWrBWSys                      0.00                       # Average system write bandwidth in MiByte/s
system.mem_ctrls.peakBW                      12800.00                       # Theoretical peak bandwidth in MiByte/s
system.mem_ctrls.busUtil                         0.00                       # Data bus utilization in percentage
system.mem_ctrls.busUtilRead                     0.00                       # Data bus utilization in percentage for reads
system.mem_ctrls.busUtilWrite                    0.00                       # Data bus utilization in percentage for writes
system.mem_ctrls.avgRdQLen                       0.00                       # Average read queue length when enqueuing
system.mem_ctrls.avgWrQLen                       0.00                       # Average write queue length when enqueuing
system.mem_ctrls.readRowHits                        0                       # Number of row buffer hits during reads
system.mem_ctrls.writeRowHits                       0                       # Number of row buffer hits during writes
system.mem_ctrls.readRowHitRate                   nan                       # Row buffer hit rate for reads
system.mem_ctrls.writeRowHitRate                  nan                       # Row buffer hit rate for writes
system.mem_ctrls.avgGap                           nan                       # Average gap between requests
system.mem_ctrls.pageHitRate                      nan                       # Row buffer hit rate, read and write combined
system.mem_ctrls.memoryStateTime::IDLE   2216051888750                       # Time in different power states
system.mem_ctrls.memoryStateTime::REF     76555180000                       # Time in different power states
system.mem_ctrls.memoryStateTime::PRE_PDN            0                       # Time in different power states
system.mem_ctrls.memoryStateTime::ACT               0                       # Time in different power states
system.mem_ctrls.memoryStateTime::ACT_PDN            0                       # Time in different power states
system.mem_ctrls.actEnergy::0                       0                       # Energy for activate commands per rank (pJ)
system.mem_ctrls.actEnergy::1                       0                       # Energy for activate commands per rank (pJ)
system.mem_ctrls.preEnergy::0                       0                       # Energy for precharge commands per rank (pJ)
system.mem_ctrls.preEnergy::1                       0                       # Energy for precharge commands per rank (pJ)
system.mem_ctrls.readEnergy::0                      0                       # Energy for read commands per rank (pJ)
system.mem_ctrls.readEnergy::1                      0                       # Energy for read commands per rank (pJ)
system.mem_ctrls.writeEnergy::0                     0                       # Energy for write commands per rank (pJ)
system.mem_ctrls.writeEnergy::1                     0                       # Energy for write commands per rank (pJ)
system.mem_ctrls.refreshEnergy::0        149741932080                       # Energy for refresh commands per rank (pJ)
system.mem_ctrls.refreshEnergy::1        149741932080                       # Energy for refresh commands per rank (pJ)
system.mem_ctrls.actBackEnergy::0         49594506705                       # Energy for active background per rank (pJ)
system.mem_ctrls.actBackEnergy::1         49594506705                       # Energy for active background per rank (pJ)
system.mem_ctrls.preBackEnergy::0        1332060279750                       # Energy for precharge background per rank (pJ)
system.mem_ctrls.preBackEnergy::1        1332060279750                       # Energy for precharge background per rank (pJ)
system.mem_ctrls.totalEnergy::0          1531396718535                       # Total energy per rank (pJ)
system.mem_ctrls.totalEnergy::1          1531396718535                       # Total energy per rank (pJ)
system.mem_ctrls.averagePower::0           667.971738                       # Core power per rank (mW)
system.mem_ctrls.averagePower::1           667.971738                       # Core power per rank (mW)
system.membus.trans_dist::ReadReq             3796159                       # Transaction distribution
system.membus.trans_dist::ReadResp            3796159                       # Transaction distribution
system.membus.trans_dist::WriteReq              11067                       # Transaction distribution
system.membus.trans_dist::WriteResp             11067                       # Transaction distribution
system.membus.trans_dist::Writeback            485594                       # Transaction distribution
system.membus.trans_dist::WriteInvalidateReq        44256                       # Transaction distribution
system.membus.trans_dist::WriteInvalidateResp        44256                       # Transaction distribution
system.membus.trans_dist::UpgradeReq               26                       # Transaction distribution
system.membus.trans_dist::UpgradeResp              26                       # Transaction distribution
system.membus.trans_dist::ReadExReq            335094                       # Transaction distribution
system.membus.trans_dist::ReadExResp           335094                       # Transaction distribution
system.membus.pkt_count_system.iocache.mem_side::system.mem_ctrls.port        88930                       # Packet count per connected master and slave (bytes)
system.membus.pkt_count_system.iocache.mem_side::total        88930                       # Packet count per connected master and slave (bytes)
system.membus.pkt_count_system.cpu.icache.mem_side::system.mem_ctrls.port      2429722                       # Packet count per connected master and slave (bytes)
system.membus.pkt_count_system.cpu.icache.mem_side::total      2429722                       # Packet count per connected master and slave (bytes)
system.membus.pkt_count_system.cpu.dcache.mem_side::system.bridge.slave        38600                       # Packet count per connected master and slave (bytes)
system.membus.pkt_count_system.cpu.dcache.mem_side::system.mem_ctrls.port      6301546                       # Packet count per connected master and slave (bytes)
system.membus.pkt_count_system.cpu.dcache.mem_side::total      6340146                       # Packet count per connected master and slave (bytes)
system.membus.pkt_count::total                8858798                       # Packet count per connected master and slave (bytes)
system.membus.pkt_size_system.iocache.mem_side::system.mem_ctrls.port      2845760                       # Cumulative packet size per connected master and slave (bytes)
system.membus.pkt_size_system.iocache.mem_side::total      2845760                       # Cumulative packet size per connected master and slave (bytes)
system.membus.pkt_size_system.cpu.icache.mem_side::system.mem_ctrls.port     77751104                       # Cumulative packet size per connected master and slave (bytes)
system.membus.pkt_size_system.cpu.icache.mem_side::total     77751104                       # Cumulative packet size per connected master and slave (bytes)
system.membus.pkt_size_system.cpu.dcache.mem_side::system.bridge.slave        50815                       # Cumulative packet size per connected master and slave (bytes)
system.membus.pkt_size_system.cpu.dcache.mem_side::system.mem_ctrls.port    217186816                       # Cumulative packet size per connected master and slave (bytes)
system.membus.pkt_size_system.cpu.dcache.mem_side::total    217237631                       # Cumulative packet size per connected master and slave (bytes)
system.membus.pkt_size::total               297834495                       # Cumulative packet size per connected master and slave (bytes)
system.membus.snoops                                0                       # Total snoops (count)
system.membus.snoop_fanout::samples           4652896                       # Request fanout histogram
system.membus.snoop_fanout::mean                    2                       # Request fanout histogram
system.membus.snoop_fanout::stdev                   0                       # Request fanout histogram
system.membus.snoop_fanout::underflows              0      0.00%      0.00% # Request fanout histogram
system.membus.snoop_fanout::0                       0      0.00%      0.00% # Request fanout histogram
system.membus.snoop_fanout::1                       0      0.00%      0.00% # Request fanout histogram
system.membus.snoop_fanout::2                 4652896    100.00%    100.00% # Request fanout histogram
system.membus.snoop_fanout::3                       0      0.00%    100.00% # Request fanout histogram
system.membus.snoop_fanout::overflows               0      0.00%    100.00% # Request fanout histogram
system.membus.snoop_fanout::min_value               2                       # Request fanout histogram
system.membus.snoop_fanout::max_value               2                       # Request fanout histogram
system.membus.snoop_fanout::total             4652896                       # Request fanout histogram
system.iocache.tags.replacements                44449                       # number of replacements
system.iocache.tags.tagsinuse                0.130500                       # Cycle average of tags in use
system.iocache.tags.total_refs                      0                       # Total number of references to valid blocks.
system.iocache.tags.sampled_refs                44449                       # Sample count of references to valid blocks.
system.iocache.tags.avg_refs                        0                       # Average number of references to valid blocks.
system.iocache.tags.warmup_cycle         2273913990017                       # Cycle when the warmup percentage was hit.
system.iocache.tags.occ_blocks::tsunami.ide     0.130500                       # Average occupied blocks per requestor
system.iocache.tags.occ_percent::tsunami.ide     0.008156                       # Average percentage of cache occupancy
system.iocache.tags.occ_percent::total       0.008156                       # Average percentage of cache occupancy
system.iocache.tags.occ_task_id_blocks::1023           16                       # Occupied blocks per task id
system.iocache.tags.age_task_id_blocks_1023::3           16                       # Occupied blocks per task id
system.iocache.tags.occ_task_id_percent::1023            1                       # Percentage of cache occupancy per task id
system.iocache.tags.tag_accesses               400185                       # Number of tag accesses
system.iocache.tags.data_accesses              400185                       # Number of data accesses
system.iocache.WriteInvalidateReq_hits::tsunami.ide        44256                       # number of WriteInvalidateReq hits
system.iocache.WriteInvalidateReq_hits::total        44256                       # number of WriteInvalidateReq hits
system.iocache.ReadReq_misses::tsunami.ide          209                       # number of ReadReq misses
system.iocache.ReadReq_misses::total              209                       # number of ReadReq misses
system.iocache.demand_misses::tsunami.ide          209                       # number of demand (read+write) misses
system.iocache.demand_misses::total               209                       # number of demand (read+write) misses
system.iocache.overall_misses::tsunami.ide          209                       # number of overall misses
system.iocache.overall_misses::total              209                       # number of overall misses
system.iocache.ReadReq_accesses::tsunami.ide          209                       # number of ReadReq accesses(hits+misses)
system.iocache.ReadReq_accesses::total            209                       # number of ReadReq accesses(hits+misses)
system.iocache.WriteInvalidateReq_accesses::tsunami.ide        44256                       # number of WriteInvalidateReq accesses(hits+misses)
system.iocache.WriteInvalidateReq_accesses::total        44256                       # number of WriteInvalidateReq accesses(hits+misses)
system.iocache.demand_accesses::tsunami.ide          209                       # number of demand (read+write) accesses
system.iocache.demand_accesses::total             209                       # number of demand (read+write) accesses
system.iocache.overall_accesses::tsunami.ide          209                       # number of overall (read+write) accesses
system.iocache.overall_accesses::total            209                       # number of overall (read+write) accesses
system.iocache.ReadReq_miss_rate::tsunami.ide            1                       # miss rate for ReadReq accesses
system.iocache.ReadReq_miss_rate::total             1                       # miss rate for ReadReq accesses
system.iocache.demand_miss_rate::tsunami.ide            1                       # miss rate for demand accesses
system.iocache.demand_miss_rate::total              1                       # miss rate for demand accesses
system.iocache.overall_miss_rate::tsunami.ide            1                       # miss rate for overall accesses
system.iocache.overall_miss_rate::total             1                       # miss rate for overall accesses
system.iocache.blocked_cycles::no_mshrs             0                       # number of cycles access was blocked
system.iocache.blocked_cycles::no_targets            0                       # number of cycles access was blocked
system.iocache.blocked::no_mshrs                    0                       # number of cycles access was blocked
system.iocache.blocked::no_targets                  0                       # number of cycles access was blocked
system.iocache.avg_blocked_cycles::no_mshrs          nan                       # average number of cycles each access was blocked
system.iocache.avg_blocked_cycles::no_targets          nan                       # average number of cycles each access was blocked
system.iocache.fast_writes                      44256                       # number of fast writes performed
system.iocache.cache_copies                         0                       # number of cache copies performed
system.iocache.no_allocate_misses                   0                       # Number of misses that were no-allocate
system.disk0.dma_read_full_pages                    0                       # Number of full page size DMA reads (not PRD).
system.disk0.dma_read_bytes                      4096                       # Number of bytes transfered via DMA reads (not PRD).
system.disk0.dma_read_txs                           1                       # Number of DMA read transactions (not PRD).
system.disk0.dma_write_full_pages                 326                       # Number of full page size DMA writes.
system.disk0.dma_write_bytes                  2824192                       # Number of bytes transfered via DMA writes.
system.disk0.dma_write_txs                        365                       # Number of DMA write transactions.
system.disk2.dma_read_full_pages                    0                       # Number of full page size DMA reads (not PRD).
system.disk2.dma_read_bytes                         0                       # Number of bytes transfered via DMA reads (not PRD).
system.disk2.dma_read_txs                           0                       # Number of DMA read transactions (not PRD).
system.disk2.dma_write_full_pages                   1                       # Number of full page size DMA writes.
system.disk2.dma_write_bytes                     8192                       # Number of bytes transfered via DMA writes.
system.disk2.dma_write_txs                          1                       # Number of DMA write transactions.
system.cpu_voltage_domain.voltage                   1                       # Voltage in Volts
system.cpu_clk_domain.clock                      1000                       # Clock period in ticks
system.cpu.dtb.fetch_hits                           0                       # ITB hits
system.cpu.dtb.fetch_misses                         0                       # ITB misses
system.cpu.dtb.fetch_acv                            0                       # ITB acv
system.cpu.dtb.fetch_accesses                       0                       # ITB accesses
system.cpu.dtb.read_hits                     15876322                       # DTB read hits
system.cpu.dtb.read_misses                      12473                       # DTB read misses
system.cpu.dtb.read_acv                            99                       # DTB read access violations
system.cpu.dtb.read_accesses                   871731                       # DTB read accesses
system.cpu.dtb.write_hits                     8204715                       # DTB write hits
system.cpu.dtb.write_misses                      1314                       # DTB write misses
system.cpu.dtb.write_acv                          170                       # DTB write access violations
system.cpu.dtb.write_accesses                  352725                       # DTB write accesses
system.cpu.dtb.data_hits                     24081037                       # DTB hits
system.cpu.dtb.data_misses                      13787                       # DTB misses
system.cpu.dtb.data_acv                           269                       # DTB access violations
system.cpu.dtb.data_accesses                  1224456                       # DTB accesses
system.cpu.itb.fetch_hits                     5892995                       # ITB hits
system.cpu.itb.fetch_misses                      6180                       # ITB misses
system.cpu.itb.fetch_acv                            1                       # ITB acv
system.cpu.itb.fetch_accesses                 5899175                       # ITB accesses
system.cpu.itb.read_hits                            0                       # DTB read hits
system.cpu.itb.read_misses                          0                       # DTB read misses
system.cpu.itb.read_acv                             0                       # DTB read access violations
system.cpu.itb.read_accesses                        0                       # DTB read accesses
system.cpu.itb.write_hits                           0                       # DTB write hits
system.cpu.itb.write_misses                         0                       # DTB write misses
system.cpu.itb.write_acv                            0                       # DTB write access violations
system.cpu.itb.write_accesses                       0                       # DTB write accesses
system.cpu.itb.data_hits                            0                       # DTB hits
system.cpu.itb.data_misses                          0                       # DTB misses
system.cpu.itb.data_acv                             0                       # DTB access violations
system.cpu.itb.data_accesses                        0                       # DTB accesses
system.cpu.numCycles                       2292620202                       # number of cpu cycles simulated
system.cpu.numWorkItemsStarted                      0                       # number of work items this cpu started
system.cpu.numWorkItemsCompleted                    0                       # number of work items this cpu completed
system.cpu.committedInsts                    89993096                       # Number of instructions committed
system.cpu.committedOps                      89993096                       # Number of ops (including micro ops) committed
system.cpu.num_int_alu_accesses              87065832                       # Number of integer alu accesses
system.cpu.num_fp_alu_accesses                 401333                       # Number of float alu accesses
system.cpu.num_func_calls                     2798898                       # number of times a function call or return occured
system.cpu.num_conditional_control_insts     11335146                       # number of instructions that are conditional controls
system.cpu.num_int_insts                     87065832                       # number of integer instructions
system.cpu.num_fp_insts                        401333                       # number of float instructions
system.cpu.num_int_register_reads           119384199                       # number of times the integer registers were read
system.cpu.num_int_register_writes           66340439                       # number of times the integer registers were written
system.cpu.num_fp_register_reads               181520                       # number of times the floating registers were read
system.cpu.num_fp_register_writes              184560                       # number of times the floating registers were written
system.cpu.num_mem_refs                      24141205                       # number of memory refs
system.cpu.num_load_insts                    15918814                       # Number of load instructions
system.cpu.num_store_insts                    8222391                       # Number of store instructions
system.cpu.num_idle_cycles               2202613157.225377                       # Number of idle cycles
system.cpu.num_busy_cycles               90007044.774623                       # Number of busy cycles
system.cpu.not_idle_fraction                 0.039259                       # Percentage of non-idle cycles
system.cpu.idle_fraction                     0.960741                       # Percentage of idle cycles
system.cpu.Branches                          14735654                       # Number of branches fetched
system.cpu.op_class::No_OpClass               1600809      1.78%      1.78% # Class of executed instruction
system.cpu.op_class::IntAlu                  62478112     69.41%     71.19% # Class of executed instruction
system.cpu.op_class::IntMult                   155839      0.17%     71.37% # Class of executed instruction
system.cpu.op_class::IntDiv                         0      0.00%     71.37% # Class of executed instruction
system.cpu.op_class::FloatAdd                   85197      0.09%     71.46% # Class of executed instruction
system.cpu.op_class::FloatCmp                       0      0.00%     71.46% # Class of executed instruction
system.cpu.op_class::FloatCvt                       0      0.00%     71.46% # Class of executed instruction
system.cpu.op_class::FloatMult                      0      0.00%     71.46% # Class of executed instruction
system.cpu.op_class::FloatDiv                    4185      0.00%     71.47% # Class of executed instruction
system.cpu.op_class::FloatSqrt                      0      0.00%     71.47% # Class of executed instruction
system.cpu.op_class::SimdAdd                        0      0.00%     71.47% # Class of executed instruction
system.cpu.op_class::SimdAddAcc                     0      0.00%     71.47% # Class of executed instruction
system.cpu.op_class::SimdAlu                        0      0.00%     71.47% # Class of executed instruction
system.cpu.op_class::SimdCmp                        0      0.00%     71.47% # Class of executed instruction
system.cpu.op_class::SimdCvt                        0      0.00%     71.47% # Class of executed instruction
system.cpu.op_class::SimdMisc                       0      0.00%     71.47% # Class of executed instruction
system.cpu.op_class::SimdMult                       0      0.00%     71.47% # Class of executed instruction
system.cpu.op_class::SimdMultAcc                    0      0.00%     71.47% # Class of executed instruction
system.cpu.op_class::SimdShift                      0      0.00%     71.47% # Class of executed instruction
system.cpu.op_class::SimdShiftAcc                   0      0.00%     71.47% # Class of executed instruction
system.cpu.op_class::SimdSqrt                       0      0.00%     71.47% # Class of executed instruction
system.cpu.op_class::SimdFloatAdd                   0      0.00%     71.47% # Class of executed instruction
system.cpu.op_class::SimdFloatAlu                   0      0.00%     71.47% # Class of executed instruction
system.cpu.op_class::SimdFloatCmp                   0      0.00%     71.47% # Class of executed instruction
system.cpu.op_class::SimdFloatCvt                   0      0.00%     71.47% # Class of executed instruction
system.cpu.op_class::SimdFloatDiv                   0      0.00%     71.47% # Class of executed instruction
system.cpu.op_class::SimdFloatMisc                  0      0.00%     71.47% # Class of executed instruction
system.cpu.op_class::SimdFloatMult                  0      0.00%     71.47% # Class of executed instruction
system.cpu.op_class::SimdFloatMultAcc               0      0.00%     71.47% # Class of executed instruction
system.cpu.op_class::SimdFloatSqrt                  0      0.00%     71.47% # Class of executed instruction
system.cpu.op_class::MemRead                 16310150     18.12%     89.59% # Class of executed instruction
system.cpu.op_class::MemWrite                 8296206      9.22%     98.80% # Class of executed instruction
system.cpu.op_class::IprAccess                1076654      1.20%    100.00% # Class of executed instruction
system.cpu.op_class::InstPrefetch                   0      0.00%    100.00% # Class of executed instruction
system.cpu.op_class::total                   90007152                       # Class of executed instruction
system.cpu.kern.inst.arm                            0                       # number of arm instructions executed
system.cpu.kern.inst.quiesce                     7147                       # number of quiesce instructions executed
system.cpu.kern.inst.hwrei                     235114                       # number of hwrei instructions executed
system.cpu.kern.ipl_count::0                    82273     40.38%     40.38% # number of times we switched to this ipl
system.cpu.kern.ipl_count::21                     374      0.18%     40.56% # number of times we switched to this ipl
system.cpu.kern.ipl_count::22                    2336      1.15%     41.71% # number of times we switched to this ipl
system.cpu.kern.ipl_count::31                  118784     58.29%    100.00% # number of times we switched to this ipl
system.cpu.kern.ipl_count::total               203767                       # number of times we switched to this ipl
system.cpu.kern.ipl_good::0                     80736     49.17%     49.17% # number of times we switched to this ipl from a different ipl
system.cpu.kern.ipl_good::21                      374      0.23%     49.40% # number of times we switched to this ipl from a different ipl
system.cpu.kern.ipl_good::22                     2336      1.42%     50.83% # number of times we switched to this ipl from a different ipl
system.cpu.kern.ipl_good::31                    80736     49.17%    100.00% # number of times we switched to this ipl from a different ipl
system.cpu.kern.ipl_good::total                164182                       # number of times we switched to this ipl from a different ipl
system.cpu.kern.ipl_ticks::0             2258510262000     98.51%     98.51% # number of cycles we spent at this ipl
system.cpu.kern.ipl_ticks::21                55400000      0.00%     98.51% # number of cycles we spent at this ipl
system.cpu.kern.ipl_ticks::22               228928000      0.01%     98.52% # number of cycles we spent at this ipl
system.cpu.kern.ipl_ticks::31             33817912000      1.48%    100.00% # number of cycles we spent at this ipl
system.cpu.kern.ipl_ticks::total         2292612502000                       # number of cycles we spent at this ipl
system.cpu.kern.ipl_used::0                  0.981318                       # fraction of swpipl calls that actually changed the ipl
system.cpu.kern.ipl_used::21                        1                       # fraction of swpipl calls that actually changed the ipl
system.cpu.kern.ipl_used::22                        1                       # fraction of swpipl calls that actually changed the ipl
system.cpu.kern.ipl_used::31                 0.679688                       # fraction of swpipl calls that actually changed the ipl
system.cpu.kern.ipl_used::total              0.805734                       # fraction of swpipl calls that actually changed the ipl
system.cpu.kern.syscall::2                          8      2.17%      2.17% # number of syscalls executed
system.cpu.kern.syscall::3                         33      8.94%     11.11% # number of syscalls executed
system.cpu.kern.syscall::4                          7      1.90%     13.01% # number of syscalls executed
system.cpu.kern.syscall::6                         45     12.20%     25.20% # number of syscalls executed
system.cpu.kern.syscall::12                         1      0.27%     25.47% # number of syscalls executed
system.cpu.kern.syscall::15                         1      0.27%     25.75% # number of syscalls executed
system.cpu.kern.syscall::17                        18      4.88%     30.62% # number of syscalls executed
system.cpu.kern.syscall::19                        11      2.98%     33.60% # number of syscalls executed
system.cpu.kern.syscall::20                         6      1.63%     35.23% # number of syscalls executed
system.cpu.kern.syscall::23                         4      1.08%     36.31% # number of syscalls executed
system.cpu.kern.syscall::24                         8      2.17%     38.48% # number of syscalls executed
system.cpu.kern.syscall::33                        12      3.25%     41.73% # number of syscalls executed
system.cpu.kern.syscall::41                         2      0.54%     42.28% # number of syscalls executed
system.cpu.kern.syscall::45                        62     16.80%     59.08% # number of syscalls executed
system.cpu.kern.syscall::47                         8      2.17%     61.25% # number of syscalls executed
system.cpu.kern.syscall::48                        10      2.71%     63.96% # number of syscalls executed
system.cpu.kern.syscall::54                        12      3.25%     67.21% # number of syscalls executed
system.cpu.kern.syscall::58                         2      0.54%     67.75% # number of syscalls executed
system.cpu.kern.syscall::59                         7      1.90%     69.65% # number of syscalls executed
system.cpu.kern.syscall::71                        63     17.07%     86.72% # number of syscalls executed
system.cpu.kern.syscall::73                         5      1.36%     88.08% # number of syscalls executed
system.cpu.kern.syscall::74                        18      4.88%     92.95% # number of syscalls executed
system.cpu.kern.syscall::87                         2      0.54%     93.50% # number of syscalls executed
system.cpu.kern.syscall::90                         3      0.81%     94.31% # number of syscalls executed
system.cpu.kern.syscall::92                         9      2.44%     96.75% # number of syscalls executed
system.cpu.kern.syscall::97                         2      0.54%     97.29% # number of syscalls executed
system.cpu.kern.syscall::98                         2      0.54%     97.83% # number of syscalls executed
system.cpu.kern.syscall::132                        4      1.08%     98.92% # number of syscalls executed
system.cpu.kern.syscall::144                        2      0.54%     99.46% # number of syscalls executed
system.cpu.kern.syscall::147                        2      0.54%    100.00% # number of syscalls executed
system.cpu.kern.syscall::total                    369                       # number of syscalls executed
system.cpu.kern.callpal::cserve                     1      0.00%      0.00% # number of callpals executed
system.cpu.kern.callpal::wrmces                     1      0.00%      0.00% # number of callpals executed
system.cpu.kern.callpal::wrfen                      1      0.00%      0.00% # number of callpals executed
system.cpu.kern.callpal::wrvptptr                   1      0.00%      0.00% # number of callpals executed
system.cpu.kern.callpal::swpctx                  4618      2.18%      2.18% # number of callpals executed
system.cpu.kern.callpal::tbi                       65      0.03%      2.21% # number of callpals executed
system.cpu.kern.callpal::wrent                      7      0.00%      2.21% # number of callpals executed
system.cpu.kern.callpal::swpipl                194852     91.84%     94.05% # number of callpals executed
system.cpu.kern.callpal::rdps                    5592      2.64%     96.69% # number of callpals executed
system.cpu.kern.callpal::wrkgp                      1      0.00%     96.69% # number of callpals executed
system.cpu.kern.callpal::wrusp                      8      0.00%     96.69% # number of callpals executed
system.cpu.kern.callpal::rdusp                     10      0.00%     96.70% # number of callpals executed
system.cpu.kern.callpal::whami                      2      0.00%     96.70% # number of callpals executed
system.cpu.kern.callpal::rti                     6204      2.92%     99.62% # number of callpals executed
system.cpu.kern.callpal::callsys                  565      0.27%     99.89% # number of callpals executed
system.cpu.kern.callpal::imb                      237      0.11%    100.00% # number of callpals executed
system.cpu.kern.callpal::total                 212165                       # number of callpals executed
system.cpu.kern.mode_switch::kernel              6958                       # number of protection mode switches
system.cpu.kern.mode_switch::user                1973                       # number of protection mode switches
system.cpu.kern.mode_switch::idle                2370                       # number of protection mode switches
system.cpu.kern.mode_good::kernel                2066                      
system.cpu.kern.mode_good::user                  1973                      
system.cpu.kern.mode_good::idle                    93                      
system.cpu.kern.mode_switch_good::kernel     0.296924                       # fraction of useful protection mode switches
system.cpu.kern.mode_switch_good::user              1                       # fraction of useful protection mode switches
system.cpu.kern.mode_switch_good::idle       0.039241                       # fraction of useful protection mode switches
system.cpu.kern.mode_switch_good::total      0.365631                       # fraction of useful protection mode switches
system.cpu.kern.mode_ticks::kernel        91754119000      4.00%      4.00% # number of ticks spent at the given mode
system.cpu.kern.mode_ticks::user           3595081000      0.16%      4.16% # number of ticks spent at the given mode
system.cpu.kern.mode_ticks::idle         2197263300000     95.84%    100.00% # number of ticks spent at the given mode
system.cpu.kern.swap_context                     4619                       # number of times the context was actually changed
system.tsunami.ethernet.descDMAReads                0                       # Number of descriptors the device read w/ DMA
system.tsunami.ethernet.descDMAWrites               0                       # Number of descriptors the device wrote w/ DMA
system.tsunami.ethernet.descDmaReadBytes            0                       # number of descriptor bytes read w/ DMA
system.tsunami.ethernet.descDmaWriteBytes            0                       # number of descriptor bytes write w/ DMA
system.tsunami.ethernet.postedSwi                   0                       # number of software interrupts posted to CPU
system.tsunami.ethernet.coalescedSwi              nan                       # average number of Swi's coalesced into each post
system.tsunami.ethernet.totalSwi                    0                       # total number of Swi written to ISR
system.tsunami.ethernet.postedRxIdle                0                       # number of rxIdle interrupts posted to CPU
system.tsunami.ethernet.coalescedRxIdle           nan                       # average number of RxIdle's coalesced into each post
system.tsunami.ethernet.totalRxIdle                 0                       # total number of RxIdle written to ISR
system.tsunami.ethernet.postedRxOk                  0                       # number of RxOk interrupts posted to CPU
system.tsunami.ethernet.coalescedRxOk             nan                       # average number of RxOk's coalesced into each post
system.tsunami.ethernet.totalRxOk                   0                       # total number of RxOk written to ISR
system.tsunami.ethernet.postedRxDesc                0                       # number of RxDesc interrupts posted to CPU
system.tsunami.ethernet.coalescedRxDesc           nan                       # average number of RxDesc's coalesced into each post
system.tsunami.ethernet.totalRxDesc                 0                       # total number of RxDesc written to ISR
system.tsunami.ethernet.postedTxOk                  0                       # number of TxOk interrupts posted to CPU
system.tsunami.ethernet.coalescedTxOk             nan                       # average number of TxOk's coalesced into each post
system.tsunami.ethernet.totalTxOk                   0                       # total number of TxOk written to ISR
system.tsunami.ethernet.postedTxIdle                0                       # number of TxIdle interrupts posted to CPU
system.tsunami.ethernet.coalescedTxIdle           nan                       # average number of TxIdle's coalesced into each post
system.tsunami.ethernet.totalTxIdle                 0                       # total number of TxIdle written to ISR
system.tsunami.ethernet.postedTxDesc                0                       # number of TxDesc interrupts posted to CPU
system.tsunami.ethernet.coalescedTxDesc           nan                       # average number of TxDesc's coalesced into each post
system.tsunami.ethernet.totalTxDesc                 0                       # total number of TxDesc written to ISR
system.tsunami.ethernet.postedRxOrn                 0                       # number of RxOrn posted to CPU
system.tsunami.ethernet.coalescedRxOrn            nan                       # average number of RxOrn's coalesced into each post
system.tsunami.ethernet.totalRxOrn                  0                       # total number of RxOrn written to ISR
system.tsunami.ethernet.coalescedTotal            nan                       # average number of interrupts coalesced into each post
system.tsunami.ethernet.postedInterrupts            0                       # number of posts to CPU
system.tsunami.ethernet.droppedPackets              0                       # number of packets dropped
system.iobus.trans_dist::ReadReq                 8442                       # Transaction distribution
system.iobus.trans_dist::ReadResp                8442                       # Transaction distribution
system.iobus.trans_dist::WriteReq               55323                       # Transaction distribution
system.iobus.trans_dist::WriteResp              11067                       # Transaction distribution
system.iobus.trans_dist::WriteInvalidateResp        44256                       # Transaction distribution
system.iobus.pkt_count_system.bridge.master::system.tsunami.cchip.pio         5830                       # Packet count per connected master and slave (bytes)
system.iobus.pkt_count_system.bridge.master::system.tsunami.pchip.pio          296                       # Packet count per connected master and slave (bytes)
system.iobus.pkt_count_system.bridge.master::system.tsunami.fake_sm_chip.pio           20                       # Packet count per connected master and slave (bytes)
system.iobus.pkt_count_system.bridge.master::system.tsunami.fake_uart4.pio           20                       # Packet count per connected master and slave (bytes)
system.iobus.pkt_count_system.bridge.master::system.tsunami.fake_ata0.pio           22                       # Packet count per connected master and slave (bytes)
system.iobus.pkt_count_system.bridge.master::system.tsunami.fake_ata1.pio           22                       # Packet count per connected master and slave (bytes)
system.iobus.pkt_count_system.bridge.master::system.tsunami.io.pio         2288                       # Packet count per connected master and slave (bytes)
system.iobus.pkt_count_system.bridge.master::system.tsunami.uart.pio        21652                       # Packet count per connected master and slave (bytes)
system.iobus.pkt_count_system.bridge.master::system.tsunami.backdoor.pio         1906                       # Packet count per connected master and slave (bytes)
system.iobus.pkt_count_system.bridge.master::system.tsunami.ide.pio         5904                       # Packet count per connected master and slave (bytes)
system.iobus.pkt_count_system.bridge.master::system.tsunami.ide-pciconf          284                       # Packet count per connected master and slave (bytes)
system.iobus.pkt_count_system.bridge.master::system.tsunami.ethernet.pio          100                       # Packet count per connected master and slave (bytes)
system.iobus.pkt_count_system.bridge.master::system.tsunami.ethernet-pciconf          196                       # Packet count per connected master and slave (bytes)
system.iobus.pkt_count_system.bridge.master::system.tsunami.pciconfig.pio           60                       # Packet count per connected master and slave (bytes)
system.iobus.pkt_count_system.bridge.master::total        38600                       # Packet count per connected master and slave (bytes)
system.iobus.pkt_count_system.tsunami.ide.dma::system.iocache.cpu_side        88930                       # Packet count per connected master and slave (bytes)
system.iobus.pkt_count_system.tsunami.ide.dma::total        88930                       # Packet count per connected master and slave (bytes)
system.iobus.pkt_count::total                  127530                       # Packet count per connected master and slave (bytes)
system.iobus.pkt_size_system.bridge.master::system.tsunami.cchip.pio        23320                       # Cumulative packet size per connected master and slave (bytes)
system.iobus.pkt_size_system.bridge.master::system.tsunami.pchip.pio         1184                       # Cumulative packet size per connected master and slave (bytes)
system.iobus.pkt_size_system.bridge.master::system.tsunami.fake_sm_chip.pio           10                       # Cumulative packet size per connected master and slave (bytes)
system.iobus.pkt_size_system.bridge.master::system.tsunami.fake_uart4.pio           10                       # Cumulative packet size per connected master and slave (bytes)
system.iobus.pkt_size_system.bridge.master::system.tsunami.fake_ata0.pio           11                       # Cumulative packet size per connected master and slave (bytes)
system.iobus.pkt_size_system.bridge.master::system.tsunami.fake_ata1.pio           11                       # Cumulative packet size per connected master and slave (bytes)
system.iobus.pkt_size_system.bridge.master::system.tsunami.io.pio         3062                       # Cumulative packet size per connected master and slave (bytes)
system.iobus.pkt_size_system.bridge.master::system.tsunami.uart.pio        10826                       # Cumulative packet size per connected master and slave (bytes)
system.iobus.pkt_size_system.bridge.master::system.tsunami.backdoor.pio         7604                       # Cumulative packet size per connected master and slave (bytes)
system.iobus.pkt_size_system.bridge.master::system.tsunami.ide.pio         3746                       # Cumulative packet size per connected master and slave (bytes)
system.iobus.pkt_size_system.bridge.master::system.tsunami.ide-pciconf          400                       # Cumulative packet size per connected master and slave (bytes)
system.iobus.pkt_size_system.bridge.master::system.tsunami.ethernet.pio          200                       # Cumulative packet size per connected master and slave (bytes)
system.iobus.pkt_size_system.bridge.master::system.tsunami.ethernet-pciconf          311                       # Cumulative packet size per connected master and slave (bytes)
system.iobus.pkt_size_system.bridge.master::system.tsunami.pciconfig.pio          120                       # Cumulative packet size per connected master and slave (bytes)
system.iobus.pkt_size_system.bridge.master::total        50815                       # Cumulative packet size per connected master and slave (bytes)
system.iobus.pkt_size_system.tsunami.ide.dma::system.iocache.cpu_side      2837640                       # Cumulative packet size per connected master and slave (bytes)
system.iobus.pkt_size_system.tsunami.ide.dma::total      2837640                       # Cumulative packet size per connected master and slave (bytes)
system.iobus.pkt_size::total                  2888455                       # Cumulative packet size per connected master and slave (bytes)
system.cpu.icache.tags.replacements           1214131                       # number of replacements
system.cpu.icache.tags.tagsinuse           511.233429                       # Cycle average of tags in use
system.cpu.icache.tags.total_refs            88550958                       # Total number of references to valid blocks.
system.cpu.icache.tags.sampled_refs           1214131                       # Sample count of references to valid blocks.
system.cpu.icache.tags.avg_refs             72.933611                       # Average number of references to valid blocks.
system.cpu.icache.tags.warmup_cycle       17859461000                       # Cycle when the warmup percentage was hit.
system.cpu.icache.tags.occ_blocks::cpu.inst   511.233429                       # Average occupied blocks per requestor
system.cpu.icache.tags.occ_percent::cpu.inst     0.998503                       # Average percentage of cache occupancy
system.cpu.icache.tags.occ_percent::total     0.998503                       # Average percentage of cache occupancy
system.cpu.icache.tags.occ_task_id_blocks::1024          512                       # Occupied blocks per task id
system.cpu.icache.tags.age_task_id_blocks_1024::0           49                       # Occupied blocks per task id
system.cpu.icache.tags.age_task_id_blocks_1024::1           66                       # Occupied blocks per task id
system.cpu.icache.tags.age_task_id_blocks_1024::2          397                       # Occupied blocks per task id
system.cpu.icache.tags.occ_task_id_percent::1024            1                       # Percentage of cache occupancy per task id
system.cpu.icache.tags.tag_accesses         181229165                       # Number of tag accesses
system.cpu.icache.tags.data_accesses        181229165                       # Number of data accesses
system.cpu.icache.ReadReq_hits::cpu.inst     88792291                       # number of ReadReq hits
system.cpu.icache.ReadReq_hits::total        88792291                       # number of ReadReq hits
system.cpu.icache.demand_hits::cpu.inst      88792291                       # number of demand (read+write) hits
system.cpu.icache.demand_hits::total         88792291                       # number of demand (read+write) hits
system.cpu.icache.overall_hits::cpu.inst     88792291                       # number of overall hits
system.cpu.icache.overall_hits::total        88792291                       # number of overall hits
system.cpu.icache.ReadReq_misses::cpu.inst      1214861                       # number of ReadReq misses
system.cpu.icache.ReadReq_misses::total       1214861                       # number of ReadReq misses
system.cpu.icache.demand_misses::cpu.inst      1214861                       # number of demand (read+write) misses
system.cpu.icache.demand_misses::total        1214861                       # number of demand (read+write) misses
system.cpu.icache.overall_misses::cpu.inst      1214861                       # number of overall misses
system.cpu.icache.overall_misses::total       1214861                       # number of overall misses
system.cpu.icache.ReadReq_accesses::cpu.inst     90007152                       # number of ReadReq accesses(hits+misses)
system.cpu.icache.ReadReq_accesses::total     90007152                       # number of ReadReq accesses(hits+misses)
system.cpu.icache.demand_accesses::cpu.inst     90007152                       # number of demand (read+write) accesses
system.cpu.icache.demand_accesses::total     90007152                       # number of demand (read+write) accesses
system.cpu.icache.overall_accesses::cpu.inst     90007152                       # number of overall (read+write) accesses
system.cpu.icache.overall_accesses::total     90007152                       # number of overall (read+write) accesses
system.cpu.icache.ReadReq_miss_rate::cpu.inst     0.013497                       # miss rate for ReadReq accesses
system.cpu.icache.ReadReq_miss_rate::total     0.013497                       # miss rate for ReadReq accesses
system.cpu.icache.demand_miss_rate::cpu.inst     0.013497                       # miss rate for demand accesses
system.cpu.icache.demand_miss_rate::total     0.013497                       # miss rate for demand accesses
system.cpu.icache.overall_miss_rate::cpu.inst     0.013497                       # miss rate for overall accesses
system.cpu.icache.overall_miss_rate::total     0.013497                       # miss rate for overall accesses
system.cpu.icache.blocked_cycles::no_mshrs            0                       # number of cycles access was blocked
system.cpu.icache.blocked_cycles::no_targets            0                       # number of cycles access was blocked
system.cpu.icache.blocked::no_mshrs                 0                       # number of cycles access was blocked
system.cpu.icache.blocked::no_targets               0                       # number of cycles access was blocked
system.cpu.icache.avg_blocked_cycles::no_mshrs          nan                       # average number of cycles each access was blocked
system.cpu.icache.avg_blocked_cycles::no_targets          nan                       # average number of cycles each access was blocked
system.cpu.icache.fast_writes                       0                       # number of fast writes performed
system.cpu.icache.cache_copies                      0                       # number of cache copies performed
system.cpu.icache.no_allocate_misses                0                       # Number of misses that were no-allocate
system.cpu.dcache.tags.replacements           2906757                       # number of replacements
system.cpu.dcache.tags.tagsinuse          1023.983800                       # Cycle average of tags in use
system.cpu.dcache.tags.total_refs            21167353                       # Total number of references to valid blocks.
system.cpu.dcache.tags.sampled_refs           2906757                       # Sample count of references to valid blocks.
system.cpu.dcache.tags.avg_refs              7.282120                       # Average number of references to valid blocks.
system.cpu.dcache.tags.warmup_cycle          34857000                       # Cycle when the warmup percentage was hit.
system.cpu.dcache.tags.occ_blocks::cpu.data  1023.983800                       # Average occupied blocks per requestor
system.cpu.dcache.tags.occ_percent::cpu.data     0.999984                       # Average percentage of cache occupancy
system.cpu.dcache.tags.occ_percent::total     0.999984                       # Average percentage of cache occupancy
system.cpu.dcache.tags.occ_task_id_blocks::1024         1024                       # Occupied blocks per task id
system.cpu.dcache.tags.age_task_id_blocks_1024::0          390                       # Occupied blocks per task id
system.cpu.dcache.tags.age_task_id_blocks_1024::1          585                       # Occupied blocks per task id
system.cpu.dcache.tags.age_task_id_blocks_1024::2           49                       # Occupied blocks per task id
system.cpu.dcache.tags.occ_task_id_percent::1024            1                       # Percentage of cache occupancy per task id
system.cpu.dcache.tags.tag_accesses          51111240                       # Number of tag accesses
system.cpu.dcache.tags.data_accesses         51111240                       # Number of data accesses
system.cpu.dcache.ReadReq_hits::cpu.data     13095559                       # number of ReadReq hits
system.cpu.dcache.ReadReq_hits::total        13095559                       # number of ReadReq hits
system.cpu.dcache.WriteReq_hits::cpu.data      7619839                       # number of WriteReq hits
system.cpu.dcache.WriteReq_hits::total        7619839                       # number of WriteReq hits
system.cpu.dcache.LoadLockedReq_hits::cpu.data       229594                       # number of LoadLockedReq hits
system.cpu.dcache.LoadLockedReq_hits::total       229594                       # number of LoadLockedReq hits
system.cpu.dcache.StoreCondReq_hits::cpu.data       248677                       # number of StoreCondReq hits
system.cpu.dcache.StoreCondReq_hits::total       248677                       # number of StoreCondReq hits
system.cpu.dcache.demand_hits::cpu.data      20715398                       # number of demand (read+write) hits
system.cpu.dcache.demand_hits::total         20715398                       # number of demand (read+write) hits
system.cpu.dcache.overall_hits::cpu.data     20715398                       # number of overall hits
system.cpu.dcache.overall_hits::total        20715398                       # number of overall hits
system.cpu.dcache.ReadReq_misses::cpu.data      2552548                       # number of ReadReq misses
system.cpu.dcache.ReadReq_misses::total       2552548                       # number of ReadReq misses
system.cpu.dcache.WriteReq_misses::cpu.data       335120                       # number of WriteReq misses
system.cpu.dcache.WriteReq_misses::total       335120                       # number of WriteReq misses
system.cpu.dcache.LoadLockedReq_misses::cpu.data        20308                       # number of LoadLockedReq misses
system.cpu.dcache.LoadLockedReq_misses::total        20308                       # number of LoadLockedReq misses
system.cpu.dcache.demand_misses::cpu.data      2887668                       # number of demand (read+write) misses
system.cpu.dcache.demand_misses::total        2887668                       # number of demand (read+write) misses
system.cpu.dcache.overall_misses::cpu.data      2887668                       # number of overall misses
system.cpu.dcache.overall_misses::total       2887668                       # number of overall misses
system.cpu.dcache.ReadReq_accesses::cpu.data     15648107                       # number of ReadReq accesses(hits+misses)
[...]
system.cpu.kern.mode_switch::user                 185                       # number of protection mode switches
system.cpu.kern.mode_switch::idle                   0                       # number of protection mode switches
system.cpu.kern.mode_good::kernel                 185                      
system.cpu.kern.mode_good::user                   185                      
system.cpu.kern.mode_good::idle                     0                      
system.cpu.kern.mode_switch_good::kernel     0.598706                       # fraction of useful protection mode switches
system.cpu.kern.mode_switch_good::user              1                       # fraction of useful protection mode switches
system.cpu.kern.mode_switch_good::idle            nan                       # fraction of useful protection mode switches
system.cpu.kern.mode_switch_good::total      0.748988                       # fraction of useful protection mode switches
system.cpu.kern.mode_ticks::kernel          543424000     71.22%     71.22% # number of ticks spent at the given mode
system.cpu.kern.mode_ticks::user            219598000     28.78%    100.00% # number of ticks spent at the given mode
system.cpu.kern.mode_ticks::idle                    0      0.00%    100.00% # number of ticks spent at the given mode
system.cpu.kern.swap_context                      121                       # number of times the context was actually changed
system.tsunami.ethernet.descDMAReads                0                       # Number of descriptors the device read w/ DMA
system.tsunami.ethernet.descDMAWrites               0                       # Number of descriptors the device wrote w/ DMA
system.tsunami.ethernet.descDmaReadBytes            0                       # number of descriptor bytes read w/ DMA
system.tsunami.ethernet.descDmaWriteBytes            0                       # number of descriptor bytes write w/ DMA
system.tsunami.ethernet.postedSwi                   0                       # number of software interrupts posted to CPU
system.tsunami.ethernet.coalescedSwi              nan                       # average number of Swi's coalesced into each post
system.tsunami.ethernet.totalSwi                    0                       # total number of Swi written to ISR
system.tsunami.ethernet.postedRxIdle                0                       # number of rxIdle interrupts posted to CPU
system.tsunami.ethernet.coalescedRxIdle           nan                       # average number of RxIdle's coalesced into each post
system.tsunami.ethernet.totalRxIdle                 0                       # total number of RxIdle written to ISR
system.tsunami.ethernet.postedRxOk                  0                       # number of RxOk interrupts posted to CPU
system.tsunami.ethernet.coalescedRxOk             nan                       # average number of RxOk's coalesced into each post
system.tsunami.ethernet.totalRxOk                   0                       # total number of RxOk written to ISR
system.tsunami.ethernet.postedRxDesc                0                       # number of RxDesc interrupts posted to CPU
system.tsunami.ethernet.coalescedRxDesc           nan                       # average number of RxDesc's coalesced into each post
system.tsunami.ethernet.totalRxDesc                 0                       # total number of RxDesc written to ISR
system.tsunami.ethernet.postedTxOk                  0                       # number of TxOk interrupts posted to CPU
system.tsunami.ethernet.coalescedTxOk             nan                       # average number of TxOk's coalesced into each post
system.tsunami.ethernet.totalTxOk                   0                       # total number of TxOk written to ISR
system.tsunami.ethernet.postedTxIdle                0                       # number of TxIdle interrupts posted to CPU
system.tsunami.ethernet.coalescedTxIdle           nan                       # average number of TxIdle's coalesced into each post
system.tsunami.ethernet.totalTxIdle                 0                       # total number of TxIdle written to ISR
system.tsunami.ethernet.postedTxDesc                0                       # number of TxDesc interrupts posted to CPU
system.tsunami.ethernet.coalescedTxDesc           nan                       # average number of TxDesc's coalesced into each post
system.tsunami.ethernet.totalTxDesc                 0                       # total number of TxDesc written to ISR
system.tsunami.ethernet.postedRxOrn                 0                       # number of RxOrn posted to CPU
system.tsunami.ethernet.coalescedRxOrn            nan                       # average number of RxOrn's coalesced into each post
system.tsunami.ethernet.totalRxOrn                  0                       # total number of RxOrn written to ISR
system.tsunami.ethernet.coalescedTotal            nan                       # average number of interrupts coalesced into each post
system.tsunami.ethernet.postedInterrupts            0                       # number of posts to CPU
system.tsunami.ethernet.droppedPackets              0                       # number of packets dropped
system.iobus.trans_dist::WriteReq                   1                       # Transaction distribution
system.iobus.trans_dist::WriteResp                  1                       # Transaction distribution
system.iobus.pkt_count_system.bridge.master::system.tsunami.cchip.pio            2                       # Packet count per connected master and slave (bytes)
system.iobus.pkt_count_system.bridge.master::total            2                       # Packet count per connected master and slave (bytes)
system.iobus.pkt_count::total                       2                       # Packet count per connected master and slave (bytes)
system.iobus.pkt_size_system.bridge.master::system.tsunami.cchip.pio            8                       # Cumulative packet size per connected master and slave (bytes)
system.iobus.pkt_size_system.bridge.master::total            8                       # Cumulative packet size per connected master and slave (bytes)
system.iobus.pkt_size::total                        8                       # Cumulative packet size per connected master and slave (bytes)
system.cpu.icache.tags.replacements              7539                       # number of replacements
system.cpu.icache.tags.tagsinuse           511.874596                       # Cycle average of tags in use
system.cpu.icache.tags.total_refs              993548                       # Total number of references to valid blocks.
system.cpu.icache.tags.sampled_refs              8050                       # Sample count of references to valid blocks.
system.cpu.icache.tags.avg_refs            123.422112                       # Average number of references to valid blocks.
system.cpu.icache.tags.warmup_cycle                 0                       # Cycle when the warmup percentage was hit.
system.cpu.icache.tags.occ_blocks::cpu.inst   511.874596                       # Average occupied blocks per requestor
system.cpu.icache.tags.occ_percent::cpu.inst     0.999755                       # Average percentage of cache occupancy
system.cpu.icache.tags.occ_percent::total     0.999755                       # Average percentage of cache occupancy
system.cpu.icache.tags.occ_task_id_blocks::1024          511                       # Occupied blocks per task id
system.cpu.icache.tags.age_task_id_blocks_1024::0           54                       # Occupied blocks per task id
system.cpu.icache.tags.age_task_id_blocks_1024::1           66                       # Occupied blocks per task id
system.cpu.icache.tags.age_task_id_blocks_1024::2          391                       # Occupied blocks per task id
system.cpu.icache.tags.occ_task_id_percent::1024     0.998047                       # Percentage of cache occupancy per task id
system.cpu.icache.tags.tag_accesses           1532514                       # Number of tag accesses
system.cpu.icache.tags.data_accesses          1532514                       # Number of data accesses
system.cpu.icache.ReadReq_hits::cpu.inst       754947                       # number of ReadReq hits
system.cpu.icache.ReadReq_hits::total          754947                       # number of ReadReq hits
system.cpu.icache.demand_hits::cpu.inst        754947                       # number of demand (read+write) hits
system.cpu.icache.demand_hits::total           754947                       # number of demand (read+write) hits
system.cpu.icache.overall_hits::cpu.inst       754947                       # number of overall hits
system.cpu.icache.overall_hits::total          754947                       # number of overall hits
system.cpu.icache.ReadReq_misses::cpu.inst         7540                       # number of ReadReq misses
system.cpu.icache.ReadReq_misses::total          7540                       # number of ReadReq misses
system.cpu.icache.demand_misses::cpu.inst         7540                       # number of demand (read+write) misses
system.cpu.icache.demand_misses::total           7540                       # number of demand (read+write) misses
system.cpu.icache.overall_misses::cpu.inst         7540                       # number of overall misses
system.cpu.icache.overall_misses::total          7540                       # number of overall misses
system.cpu.icache.ReadReq_accesses::cpu.inst       762487                       # number of ReadReq accesses(hits+misses)
system.cpu.icache.ReadReq_accesses::total       762487                       # number of ReadReq accesses(hits+misses)
system.cpu.icache.demand_accesses::cpu.inst       762487                       # number of demand (read+write) accesses
system.cpu.icache.demand_accesses::total       762487                       # number of demand (read+write) accesses
system.cpu.icache.overall_accesses::cpu.inst       762487                       # number of overall (read+write) accesses
system.cpu.icache.overall_accesses::total       762487                       # number of overall (read+write) accesses
system.cpu.icache.ReadReq_miss_rate::cpu.inst     0.009889                       # miss rate for ReadReq accesses
system.cpu.icache.ReadReq_miss_rate::total     0.009889                       # miss rate for ReadReq accesses
system.cpu.icache.demand_miss_rate::cpu.inst     0.009889                       # miss rate for demand accesses
system.cpu.icache.demand_miss_rate::total     0.009889                       # miss rate for demand accesses
system.cpu.icache.overall_miss_rate::cpu.inst     0.009889                       # miss rate for overall accesses
system.cpu.icache.overall_miss_rate::total     0.009889                       # miss rate for overall accesses
system.cpu.icache.blocked_cycles::no_mshrs            0                       # number of cycles access was blocked
system.cpu.icache.blocked_cycles::no_targets            0                       # number of cycles access was blocked
system.cpu.icache.blocked::no_mshrs                 0                       # number of cycles access was blocked
system.cpu.icache.blocked::no_targets               0                       # number of cycles access was blocked
system.cpu.icache.avg_blocked_cycles::no_mshrs          nan                       # average number of cycles each access was blocked
system.cpu.icache.avg_blocked_cycles::no_targets          nan                       # average number of cycles each access was blocked
system.cpu.icache.fast_writes                       0                       # number of fast writes performed
system.cpu.icache.cache_copies                      0                       # number of cache copies performed
system.cpu.icache.no_allocate_misses                0                       # Number of misses that were no-allocate
system.cpu.dcache.tags.replacements             16765                       # number of replacements
system.cpu.dcache.tags.tagsinuse                 1024                       # Cycle average of tags in use
system.cpu.dcache.tags.total_refs              292706                       # Total number of references to valid blocks.
system.cpu.dcache.tags.sampled_refs             17789                       # Sample count of references to valid blocks.
system.cpu.dcache.tags.avg_refs             16.454326                       # Average number of references to valid blocks.
system.cpu.dcache.tags.warmup_cycle                 0                       # Cycle when the warmup percentage was hit.
system.cpu.dcache.tags.occ_blocks::cpu.data         1024                       # Average occupied blocks per requestor
system.cpu.dcache.tags.occ_percent::cpu.data            1                       # Average percentage of cache occupancy
system.cpu.dcache.tags.occ_percent::total            1                       # Average percentage of cache occupancy
system.cpu.dcache.tags.occ_task_id_blocks::1024         1024                       # Occupied blocks per task id
system.cpu.dcache.tags.age_task_id_blocks_1024::0          317                       # Occupied blocks per task id
system.cpu.dcache.tags.age_task_id_blocks_1024::1          660                       # Occupied blocks per task id
system.cpu.dcache.tags.age_task_id_blocks_1024::2           47                       # Occupied blocks per task id
system.cpu.dcache.tags.occ_task_id_percent::1024            1                       # Percentage of cache occupancy per task id
system.cpu.dcache.tags.tag_accesses            566943                       # Number of tag accesses
system.cpu.dcache.tags.data_accesses           566943                       # Number of data accesses
system.cpu.dcache.ReadReq_hits::cpu.data       132793                       # number of ReadReq hits
system.cpu.dcache.ReadReq_hits::total          132793                       # number of ReadReq hits
system.cpu.dcache.WriteReq_hits::cpu.data       120803                       # number of WriteReq hits
system.cpu.dcache.WriteReq_hits::total         120803                       # number of WriteReq hits
system.cpu.dcache.LoadLockedReq_hits::cpu.data         2279                       # number of LoadLockedReq hits
system.cpu.dcache.LoadLockedReq_hits::total         2279                       # number of LoadLockedReq hits
system.cpu.dcache.StoreCondReq_hits::cpu.data         2448                       # number of StoreCondReq hits
system.cpu.dcache.StoreCondReq_hits::total         2448                       # number of StoreCondReq hits
system.cpu.dcache.demand_hits::cpu.data        253596                       # number of demand (read+write) hits
system.cpu.dcache.demand_hits::total           253596                       # number of demand (read+write) hits
system.cpu.dcache.overall_hits::cpu.data       253596                       # number of overall hits
system.cpu.dcache.overall_hits::total          253596                       # number of overall hits
system.cpu.dcache.ReadReq_misses::cpu.data         7494                       # number of ReadReq misses
system.cpu.dcache.ReadReq_misses::total          7494                       # number of ReadReq misses
system.cpu.dcache.WriteReq_misses::cpu.data         9096                       # number of WriteReq misses
system.cpu.dcache.WriteReq_misses::total         9096                       # number of WriteReq misses
system.cpu.dcache.LoadLockedReq_misses::cpu.data          176                       # number of LoadLockedReq misses
system.cpu.dcache.LoadLockedReq_misses::total          176                       # number of LoadLockedReq misses
system.cpu.dcache.demand_misses::cpu.data        16590                       # number of demand (read+write) misses
system.cpu.dcache.demand_misses::total          16590                       # number of demand (read+write) misses
system.cpu.dcache.overall_misses::cpu.data        16590                       # number of overall misses
system.cpu.dcache.overall_misses::total         16590                       # number of overall misses
system.cpu.dcache.ReadReq_accesses::cpu.data       140287                       # number of ReadReq accesses(hits+misses)
system.cpu.dcache.ReadReq_accesses::total       140287                       # number of ReadReq accesses(hits+misses)
system.cpu.dcache.WriteReq_accesses::cpu.data       129899                       # number of WriteReq accesses(hits+misses)
system.cpu.dcache.WriteReq_accesses::total       129899                       # number of WriteReq accesses(hits+misses)
system.cpu.dcache.LoadLockedReq_accesses::cpu.data         2455                       # number of LoadLockedReq accesses(hits+misses)
system.cpu.dcache.LoadLockedReq_accesses::total         2455                       # number of LoadLockedReq accesses(hits+misses)
system.cpu.dcache.StoreCondReq_accesses::cpu.data         2448                       # number of StoreCondReq accesses(hits+misses)
system.cpu.dcache.StoreCondReq_accesses::total         2448                       # number of StoreCondReq accesses(hits+misses)
system.cpu.dcache.demand_accesses::cpu.data       270186                       # number of demand (read+write) accesses
system.cpu.dcache.demand_accesses::total       270186                       # number of demand (read+write) accesses
system.cpu.dcache.overall_accesses::cpu.data       270186                       # number of overall (read+write) accesses
system.cpu.dcache.overall_accesses::total       270186                       # number of overall (read+write) accesses
system.cpu.dcache.ReadReq_miss_rate::cpu.data     0.053419                       # miss rate for ReadReq accesses
system.cpu.dcache.ReadReq_miss_rate::total     0.053419                       # miss rate for ReadReq accesses
system.cpu.dcache.WriteReq_miss_rate::cpu.data     0.070024                       # miss rate for WriteReq accesses
system.cpu.dcache.WriteReq_miss_rate::total     0.070024                       # miss rate for WriteReq accesses
system.cpu.dcache.LoadLockedReq_miss_rate::cpu.data     0.071690                       # miss rate for LoadLockedReq accesses
system.cpu.dcache.LoadLockedReq_miss_rate::total     0.071690                       # miss rate for LoadLockedReq accesses
system.cpu.dcache.demand_miss_rate::cpu.data     0.061402                       # miss rate for demand accesses
system.cpu.dcache.demand_miss_rate::total     0.061402                       # miss rate for demand accesses
system.cpu.dcache.overall_miss_rate::cpu.data     0.061402                       # miss rate for overall accesses
system.cpu.dcache.overall_miss_rate::total     0.061402                       # miss rate for overall accesses
system.cpu.dcache.blocked_cycles::no_mshrs            0                       # number of cycles access was blocked
system.cpu.dcache.blocked_cycles::no_targets            0                       # number of cycles access was blocked
system.cpu.dcache.blocked::no_mshrs                 0                       # number of cycles access was blocked
system.cpu.dcache.blocked::no_targets               0                       # number of cycles access was blocked
system.cpu.dcache.avg_blocked_cycles::no_mshrs          nan                       # average number of cycles each access was blocked
system.cpu.dcache.avg_blocked_cycles::no_targets          nan                       # average number of cycles each access was blocked
system.cpu.dcache.fast_writes                       0                       # number of fast writes performed
system.cpu.dcache.cache_copies                      0                       # number of cache copies performed
system.cpu.dcache.writebacks::writebacks        10393                       # number of writebacks
system.cpu.dcache.writebacks::total             10393                       # number of writebacks
system.cpu.dcache.no_allocate_misses                0                       # Number of misses that were no-allocate

---------- End Simulation Statistics   ----------
