
---------- Begin Simulation Statistics ----------
sim_seconds                                  4.776417                       # Number of seconds simulated
sim_ticks                                4776416843500                       # Number of ticks simulated
final_tick                               4776416843500                       # Number of ticks from beginning of simulation (restored from checkpoints and never reset)
sim_freq                                 1000000000000                       # Frequency of simulated ticks
host_inst_rate                                1201628                       # Simulator instruction rate (inst/s)
host_op_rate                                  3016191                       # Simulator op (including micro ops) rate (op/s)
host_tick_rate                            23088235459                       # Simulator tick rate (ticks/s)
host_mem_usage                                 949044                       # Number of bytes of host memory used
host_seconds                                   206.88                       # Real time elapsed on the host
sim_insts                                   248588817                       # Number of instructions simulated
sim_ops                                     623979362                       # Number of ops (including micro ops) simulated
system.voltage_domain.voltage                       1                       # Voltage in Volts
system.clk_domain.clock                          1000                       # Clock period in ticks
system.mem_ctrls.bytes_read::pc.south_bridge.ide        41824                       # Number of bytes read from this memory
system.mem_ctrls.bytes_read::cpu0.dtb.walker        22744                       # Number of bytes read from this memory
system.mem_ctrls.bytes_read::cpu0.itb.walker        28672                       # Number of bytes read from this memory
system.mem_ctrls.bytes_read::cpu0.inst     2287961240                       # Number of bytes read from this memory
system.mem_ctrls.bytes_read::cpu0.data      261657890                       # Number of bytes read from this memory
system.mem_ctrls.bytes_read::cpu1.dtb.walker         4064                       # Number of bytes read from this memory
system.mem_ctrls.bytes_read::cpu1.itb.walker         4848                       # Number of bytes read from this memory
system.mem_ctrls.bytes_read::cpu1.inst      138467640                       # Number of bytes read from this memory
system.mem_ctrls.bytes_read::cpu1.data       29272755                       # Number of bytes read from this memory
system.mem_ctrls.bytes_read::cpu2.dtb.walker         5336                       # Number of bytes read from this memory
system.mem_ctrls.bytes_read::cpu2.itb.walker         5904                       # Number of bytes read from this memory
system.mem_ctrls.bytes_read::cpu2.inst      136378064                       # Number of bytes read from this memory
system.mem_ctrls.bytes_read::cpu2.data       23752137                       # Number of bytes read from this memory
system.mem_ctrls.bytes_read::cpu3.dtb.walker        17688                       # Number of bytes read from this memory
system.mem_ctrls.bytes_read::cpu3.itb.walker        18528                       # Number of bytes read from this memory
system.mem_ctrls.bytes_read::cpu3.inst       68504296                       # Number of bytes read from this memory
system.mem_ctrls.bytes_read::cpu3.data       11441027                       # Number of bytes read from this memory
system.mem_ctrls.bytes_read::total         2957584657                       # Number of bytes read from this memory
system.mem_ctrls.bytes_inst_read::cpu0.inst   2287961240                       # Number of instructions bytes read from this memory
system.mem_ctrls.bytes_inst_read::cpu1.inst    138467640                       # Number of instructions bytes read from this memory
system.mem_ctrls.bytes_inst_read::cpu2.inst    136378064                       # Number of instructions bytes read from this memory
system.mem_ctrls.bytes_inst_read::cpu3.inst     68504296                       # Number of instructions bytes read from this memory
system.mem_ctrls.bytes_inst_read::total    2631311240                       # Number of instructions bytes read from this memory
system.mem_ctrls.bytes_written::pc.south_bridge.ide      2661376                       # Number of bytes written to this memory
system.mem_ctrls.bytes_written::cpu0.itb.walker           16                       # Number of bytes written to this memory
system.mem_ctrls.bytes_written::cpu0.data     50255892                       # Number of bytes written to this memory
system.mem_ctrls.bytes_written::cpu1.data     20061324                       # Number of bytes written to this memory
system.mem_ctrls.bytes_written::cpu2.data     16785249                       # Number of bytes written to this memory
system.mem_ctrls.bytes_written::cpu3.data      7487517                       # Number of bytes written to this memory
system.mem_ctrls.bytes_written::total        97251374                       # Number of bytes written to this memory
system.mem_ctrls.num_reads::pc.south_bridge.ide         1196                       # Number of read requests responded to by this memory
system.mem_ctrls.num_reads::cpu0.dtb.walker         2843                       # Number of read requests responded to by this memory
system.mem_ctrls.num_reads::cpu0.itb.walker         3584                       # Number of read requests responded to by this memory
system.mem_ctrls.num_reads::cpu0.inst       285995155                       # Number of read requests responded to by this memory
system.mem_ctrls.num_reads::cpu0.data        61856931                       # Number of read requests responded to by this memory
system.mem_ctrls.num_reads::cpu1.dtb.walker          508                       # Number of read requests responded to by this memory
system.mem_ctrls.num_reads::cpu1.itb.walker          606                       # Number of read requests responded to by this memory
system.mem_ctrls.num_reads::cpu1.inst        17308455                       # Number of read requests responded to by this memory
system.mem_ctrls.num_reads::cpu1.data         4182951                       # Number of read requests responded to by this memory
system.mem_ctrls.num_reads::cpu2.dtb.walker          667                       # Number of read requests responded to by this memory
system.mem_ctrls.num_reads::cpu2.itb.walker          738                       # Number of read requests responded to by this memory
system.mem_ctrls.num_reads::cpu2.inst        17047258                       # Number of read requests responded to by this memory
system.mem_ctrls.num_reads::cpu2.data         3560323                       # Number of read requests responded to by this memory
system.mem_ctrls.num_reads::cpu3.dtb.walker         2211                       # Number of read requests responded to by this memory
system.mem_ctrls.num_reads::cpu3.itb.walker         2316                       # Number of read requests responded to by this memory
system.mem_ctrls.num_reads::cpu3.inst         8563037                       # Number of read requests responded to by this memory
system.mem_ctrls.num_reads::cpu3.data         1742335                       # Number of read requests responded to by this memory
system.mem_ctrls.num_reads::total           400271114                       # Number of read requests responded to by this memory
system.mem_ctrls.num_writes::pc.south_bridge.ide        41584                       # Number of write requests responded to by this memory
system.mem_ctrls.num_writes::cpu0.itb.walker            2                       # Number of write requests responded to by this memory
system.mem_ctrls.num_writes::cpu0.data       14041951                       # Number of write requests responded to by this memory
system.mem_ctrls.num_writes::cpu1.data        2747349                       # Number of write requests responded to by this memory
system.mem_ctrls.num_writes::cpu2.data        2348619                       # Number of write requests responded to by this memory
system.mem_ctrls.num_writes::cpu3.data        1057374                       # Number of write requests responded to by this memory
system.mem_ctrls.num_writes::total           20236879                       # Number of write requests responded to by this memory
system.mem_ctrls.bw_read::pc.south_bridge.ide         8756                       # Total read bandwidth from this memory (bytes/s)
system.mem_ctrls.bw_read::cpu0.dtb.walker         4762                       # Total read bandwidth from this memory (bytes/s)
system.mem_ctrls.bw_read::cpu0.itb.walker         6003                       # Total read bandwidth from this memory (bytes/s)
system.mem_ctrls.bw_read::cpu0.inst         479012053                       # Total read bandwidth from this memory (bytes/s)
system.mem_ctrls.bw_read::cpu0.data          54781209                       # Total read bandwidth from this memory (bytes/s)
system.mem_ctrls.bw_read::cpu1.dtb.walker          851                       # Total read bandwidth from this memory (bytes/s)
system.mem_ctrls.bw_read::cpu1.itb.walker         1015                       # Total read bandwidth from this memory (bytes/s)
system.mem_ctrls.bw_read::cpu1.inst          28989857                       # Total read bandwidth from this memory (bytes/s)
system.mem_ctrls.bw_read::cpu1.data           6128601                       # Total read bandwidth from this memory (bytes/s)
system.mem_ctrls.bw_read::cpu2.dtb.walker         1117                       # Total read bandwidth from this memory (bytes/s)
system.mem_ctrls.bw_read::cpu2.itb.walker         1236                       # Total read bandwidth from this memory (bytes/s)
system.mem_ctrls.bw_read::cpu2.inst          28552379                       # Total read bandwidth from this memory (bytes/s)
system.mem_ctrls.bw_read::cpu2.data           4972794                       # Total read bandwidth from this memory (bytes/s)
system.mem_ctrls.bw_read::cpu3.dtb.walker         3703                       # Total read bandwidth from this memory (bytes/s)
system.mem_ctrls.bw_read::cpu3.itb.walker         3879                       # Total read bandwidth from this memory (bytes/s)
system.mem_ctrls.bw_read::cpu3.inst          14342194                       # Total read bandwidth from this memory (bytes/s)
system.mem_ctrls.bw_read::cpu3.data           2395316                       # Total read bandwidth from this memory (bytes/s)
system.mem_ctrls.bw_read::total             619205726                       # Total read bandwidth from this memory (bytes/s)
system.mem_ctrls.bw_inst_read::cpu0.inst    479012053                       # Instruction read bandwidth from this memory (bytes/s)
system.mem_ctrls.bw_inst_read::cpu1.inst     28989857                       # Instruction read bandwidth from this memory (bytes/s)
system.mem_ctrls.bw_inst_read::cpu2.inst     28552379                       # Instruction read bandwidth from this memory (bytes/s)
system.mem_ctrls.bw_inst_read::cpu3.inst     14342194                       # Instruction read bandwidth from this memory (bytes/s)
system.mem_ctrls.bw_inst_read::total        550896483                       # Instruction read bandwidth from this memory (bytes/s)
system.mem_ctrls.bw_write::pc.south_bridge.ide       557191                       # Write bandwidth from this memory (bytes/s)
system.mem_ctrls.bw_write::cpu0.itb.walker            3                       # Write bandwidth from this memory (bytes/s)
system.mem_ctrls.bw_write::cpu0.data         10521672                       # Write bandwidth from this memory (bytes/s)
system.mem_ctrls.bw_write::cpu1.data          4200078                       # Write bandwidth from this memory (bytes/s)
system.mem_ctrls.bw_write::cpu2.data          3514193                       # Write bandwidth from this memory (bytes/s)
system.mem_ctrls.bw_write::cpu3.data          1567601                       # Write bandwidth from this memory (bytes/s)
system.mem_ctrls.bw_write::total             20360738                       # Write bandwidth from this memory (bytes/s)
system.mem_ctrls.bw_total::pc.south_bridge.ide       565947                       # Total bandwidth to/from this memory (bytes/s)
system.mem_ctrls.bw_total::cpu0.dtb.walker         4762                       # Total bandwidth to/from this memory (bytes/s)
system.mem_ctrls.bw_total::cpu0.itb.walker         6006                       # Total bandwidth to/from this memory (bytes/s)
system.mem_ctrls.bw_total::cpu0.inst        479012053                       # Total bandwidth to/from this memory (bytes/s)
system.mem_ctrls.bw_total::cpu0.data         65302881                       # Total bandwidth to/from this memory (bytes/s)
system.mem_ctrls.bw_total::cpu1.dtb.walker          851                       # Total bandwidth to/from this memory (bytes/s)
system.mem_ctrls.bw_total::cpu1.itb.walker         1015                       # Total bandwidth to/from this memory (bytes/s)
system.mem_ctrls.bw_total::cpu1.inst         28989857                       # Total bandwidth to/from this memory (bytes/s)
system.mem_ctrls.bw_total::cpu1.data         10328680                       # Total bandwidth to/from this memory (bytes/s)
system.mem_ctrls.bw_total::cpu2.dtb.walker         1117                       # Total bandwidth to/from this memory (bytes/s)
system.mem_ctrls.bw_total::cpu2.itb.walker         1236                       # Total bandwidth to/from this memory (bytes/s)
system.mem_ctrls.bw_total::cpu2.inst         28552379                       # Total bandwidth to/from this memory (bytes/s)
system.mem_ctrls.bw_total::cpu2.data          8486987                       # Total bandwidth to/from this memory (bytes/s)
system.mem_ctrls.bw_total::cpu3.dtb.walker         3703                       # Total bandwidth to/from this memory (bytes/s)
system.mem_ctrls.bw_total::cpu3.itb.walker         3879                       # Total bandwidth to/from this memory (bytes/s)
system.mem_ctrls.bw_total::cpu3.inst         14342194                       # Total bandwidth to/from this memory (bytes/s)
system.mem_ctrls.bw_total::cpu3.data          3962917                       # Total bandwidth to/from this memory (bytes/s)
system.mem_ctrls.bw_total::total            639566464                       # Total bandwidth to/from this memory (bytes/s)
system.mem_ctrls.readReqs                           0                       # Number of read requests accepted
system.mem_ctrls.writeReqs                          0                       # Number of write requests accepted
system.mem_ctrls.readBursts                         0                       # Number of DRAM read bursts, including those serviced by the write queue
system.mem_ctrls.writeBursts                        0                       # Number of DRAM write bursts, including those merged in the write queue
system.mem_ctrls.bytesReadDRAM                      0                       # Total number of bytes read from DRAM
system.mem_ctrls.bytesReadWrQ                       0                       # Total number of bytes read from write queue
system.mem_ctrls.bytesWritten                       0                       # Total number of bytes written to DRAM
system.mem_ctrls.bytesReadSys                       0                       # Total read bytes from the system interface side
system.mem_ctrls.bytesWrittenSys                    0                       # Total written bytes from the system interface side
system.mem_ctrls.servicedByWrQ                      0                       # Number of DRAM read bursts serviced by the write queue
system.mem_ctrls.mergedWrBursts                     0                       # Number of DRAM write bursts merged with an existing one
system.mem_ctrls.neitherReadNorWriteReqs            0                       # Number of requests that are neither read nor write
system.mem_ctrls.perBankRdBursts::0                 0                       # Per bank write bursts
system.mem_ctrls.perBankRdBursts::1                 0                       # Per bank write bursts
system.mem_ctrls.perBankRdBursts::2                 0                       # Per bank write bursts
system.mem_ctrls.perBankRdBursts::3                 0                       # Per bank write bursts
system.mem_ctrls.perBankRdBursts::4                 0                       # Per bank write bursts
system.mem_ctrls.perBankRdBursts::5                 0                       # Per bank write bursts
system.mem_ctrls.perBankRdBursts::6                 0                       # Per bank write bursts
system.mem_ctrls.perBankRdBursts::7                 0                       # Per bank write bursts
system.mem_ctrls.perBankRdBursts::8                 0                       # Per bank write bursts
system.mem_ctrls.perBankRdBursts::9                 0                       # Per bank write bursts
system.mem_ctrls.perBankRdBursts::10                0                       # Per bank write bursts
system.mem_ctrls.perBankRdBursts::11                0                       # Per bank write bursts
system.mem_ctrls.perBankRdBursts::12                0                       # Per bank write bursts
system.mem_ctrls.perBankRdBursts::13                0                       # Per bank write bursts
system.mem_ctrls.perBankRdBursts::14                0                       # Per bank write bursts
system.mem_ctrls.perBankRdBursts::15                0                       # Per bank write bursts
system.mem_ctrls.perBankWrBursts::0                 0                       # Per bank write bursts
system.mem_ctrls.perBankWrBursts::1                 0                       # Per bank write bursts
system.mem_ctrls.perBankWrBursts::2                 0                       # Per bank write bursts
system.mem_ctrls.perBankWrBursts::3                 0                       # Per bank write bursts
system.mem_ctrls.perBankWrBursts::4                 0                       # Per bank write bursts
system.mem_ctrls.perBankWrBursts::5                 0                       # Per bank write bursts
system.mem_ctrls.perBankWrBursts::6                 0                       # Per bank write bursts
system.mem_ctrls.perBankWrBursts::7                 0                       # Per bank write bursts
system.mem_ctrls.perBankWrBursts::8                 0                       # Per bank write bursts
system.mem_ctrls.perBankWrBursts::9                 0                       # Per bank write bursts
system.mem_ctrls.perBankWrBursts::10                0                       # Per bank write bursts
system.mem_ctrls.perBankWrBursts::11                0                       # Per bank write bursts
system.mem_ctrls.perBankWrBursts::12                0                       # Per bank write bursts
system.mem_ctrls.perBankWrBursts::13                0                       # Per bank write bursts
system.mem_ctrls.perBankWrBursts::14                0                       # Per bank write bursts
system.mem_ctrls.perBankWrBursts::15                0                       # Per bank write bursts
system.mem_ctrls.numRdRetry                         0                       # Number of times read queue was full causing retry
system.mem_ctrls.numWrRetry                         0                       # Number of times write queue was full causing retry
system.mem_ctrls.totGap                             0                       # Total gap between requests
system.mem_ctrls.readPktSize::0                     0                       # Read request sizes (log2)
system.mem_ctrls.readPktSize::1                     0                       # Read request sizes (log2)
system.mem_ctrls.readPktSize::2                     0                       # Read request sizes (log2)
system.mem_ctrls.readPktSize::3                     0                       # Read request sizes (log2)
system.mem_ctrls.readPktSize::4                     0                       # Read request sizes (log2)
system.mem_ctrls.readPktSize::5                     0                       # Read request sizes (log2)
system.mem_ctrls.readPktSize::6                     0                       # Read request sizes (log2)
system.mem_ctrls.writePktSize::0                    0                       # Write request sizes (log2)
system.mem_ctrls.writePktSize::1                    0                       # Write request sizes (log2)
system.mem_ctrls.writePktSize::2                    0                       # Write request sizes (log2)
system.mem_ctrls.writePktSize::3                    0                       # Write request sizes (log2)
system.mem_ctrls.writePktSize::4                    0                       # Write request sizes (log2)
system.mem_ctrls.writePktSize::5                    0                       # Write request sizes (log2)
system.mem_ctrls.writePktSize::6                    0                       # Write request sizes (log2)
system.mem_ctrls.rdQLenPdf::0                       0                       # What read queue length does an incoming req see
system.mem_ctrls.rdQLenPdf::1                       0                       # What read queue length does an incoming req see
system.mem_ctrls.rdQLenPdf::2                       0                       # What read queue length does an incoming req see
system.mem_ctrls.rdQLenPdf::3                       0                       # What read queue length does an incoming req see
system.mem_ctrls.rdQLenPdf::4                       0                       # What read queue length does an incoming req see
system.mem_ctrls.rdQLenPdf::5                       0                       # What read queue length does an incoming req see
system.mem_ctrls.rdQLenPdf::6                       0                       # What read queue length does an incoming req see
system.mem_ctrls.rdQLenPdf::7                       0                       # What read queue length does an incoming req see
system.mem_ctrls.rdQLenPdf::8                       0                       # What read queue length does an incoming req see
system.mem_ctrls.rdQLenPdf::9                       0                       # What read queue length does an incoming req see
system.mem_ctrls.rdQLenPdf::10                      0                       # What read queue length does an incoming req see
system.mem_ctrls.rdQLenPdf::11                      0                       # What read queue length does an incoming req see
system.mem_ctrls.rdQLenPdf::12                      0                       # What read queue length does an incoming req see
system.mem_ctrls.rdQLenPdf::13                      0                       # What read queue length does an incoming req see
system.mem_ctrls.rdQLenPdf::14                      0                       # What read queue length does an incoming req see
system.mem_ctrls.rdQLenPdf::15                      0                       # What read queue length does an incoming req see
system.mem_ctrls.rdQLenPdf::16                      0                       # What read queue length does an incoming req see
system.mem_ctrls.rdQLenPdf::17                      0                       # What read queue length does an incoming req see
system.mem_ctrls.rdQLenPdf::18                      0                       # What read queue length does an incoming req see
system.mem_ctrls.rdQLenPdf::19                      0                       # What read queue length does an incoming req see
system.mem_ctrls.rdQLenPdf::20                      0                       # What read queue length does an incoming req see
system.mem_ctrls.rdQLenPdf::21                      0                       # What read queue length does an incoming req see
system.mem_ctrls.rdQLenPdf::22                      0                       # What read queue length does an incoming req see
system.mem_ctrls.rdQLenPdf::23                      0                       # What read queue length does an incoming req see
system.mem_ctrls.rdQLenPdf::24                      0                       # What read queue length does an incoming req see
system.mem_ctrls.rdQLenPdf::25                      0                       # What read queue length does an incoming req see
system.mem_ctrls.rdQLenPdf::26                      0                       # What read queue length does an incoming req see
system.mem_ctrls.rdQLenPdf::27                      0                       # What read queue length does an incoming req see
system.mem_ctrls.rdQLenPdf::28                      0                       # What read queue length does an incoming req see
system.mem_ctrls.rdQLenPdf::29                      0                       # What read queue length does an incoming req see
system.mem_ctrls.rdQLenPdf::30                      0                       # What read queue length does an incoming req see
system.mem_ctrls.rdQLenPdf::31                      0                       # What read queue length does an incoming req see
system.mem_ctrls.wrQLenPdf::0                       0                       # What write queue length does an incoming req see
system.mem_ctrls.wrQLenPdf::1                       0                       # What write queue length does an incoming req see
system.mem_ctrls.wrQLenPdf::2                       0                       # What write queue length does an incoming req see
system.mem_ctrls.wrQLenPdf::3                       0                       # What write queue length does an incoming req see
system.mem_ctrls.wrQLenPdf::4                       0                       # What write queue length does an incoming req see
system.mem_ctrls.wrQLenPdf::5                       0                       # What write queue length does an incoming req see
system.mem_ctrls.wrQLenPdf::6                       0                       # What write queue length does an incoming req see
system.mem_ctrls.wrQLenPdf::7                       0                       # What write queue length does an incoming req see
system.mem_ctrls.wrQLenPdf::8                       0                       # What write queue length does an incoming req see
system.mem_ctrls.wrQLenPdf::9                       0                       # What write queue length does an incoming req see
system.mem_ctrls.wrQLenPdf::10                      0                       # What write queue length does an incoming req see
system.mem_ctrls.wrQLenPdf::11                      0                       # What write queue length does an incoming req see
system.mem_ctrls.wrQLenPdf::12                      0                       # What write queue length does an incoming req see
system.mem_ctrls.wrQLenPdf::13                      0                       # What write queue length does an incoming req see
system.mem_ctrls.wrQLenPdf::14                      0                       # What write queue length does an incoming req see
system.mem_ctrls.wrQLenPdf::15                      0                       # What write queue length does an incoming req see
system.mem_ctrls.wrQLenPdf::16                      0                       # What write queue length does an incoming req see
system.mem_ctrls.wrQLenPdf::17                      0                       # What write queue length does an incoming req see
system.mem_ctrls.wrQLenPdf::18                      0                       # What write queue length does an incoming req see
system.mem_ctrls.wrQLenPdf::19                      0                       # What write queue length does an incoming req see
system.mem_ctrls.wrQLenPdf::20                      0                       # What write queue length does an incoming req see
system.mem_ctrls.wrQLenPdf::21                      0                       # What write queue length does an incoming req see
system.mem_ctrls.wrQLenPdf::22                      0                       # What write queue length does an incoming req see
system.mem_ctrls.wrQLenPdf::23                      0                       # What write queue length does an incoming req see
system.mem_ctrls.wrQLenPdf::24                      0                       # What write queue length does an incoming req see
system.mem_ctrls.wrQLenPdf::25                      0                       # What write queue length does an incoming req see
system.mem_ctrls.wrQLenPdf::26                      0                       # What write queue length does an incoming req see
system.mem_ctrls.wrQLenPdf::27                      0                       # What write queue length does an incoming req see
system.mem_ctrls.wrQLenPdf::28                      0                       # What write queue length does an incoming req see
system.mem_ctrls.wrQLenPdf::29                      0                       # What write queue length does an incoming req see
system.mem_ctrls.wrQLenPdf::30                      0                       # What write queue length does an incoming req see
system.mem_ctrls.wrQLenPdf::31                      0                       # What write queue length does an incoming req see
system.mem_ctrls.wrQLenPdf::32                      0                       # What write queue length does an incoming req see
system.mem_ctrls.wrQLenPdf::33                      0                       # What write queue length does an incoming req see
system.mem_ctrls.wrQLenPdf::34                      0                       # What write queue length does an incoming req see
system.mem_ctrls.wrQLenPdf::35                      0                       # What write queue length does an incoming req see
system.mem_ctrls.wrQLenPdf::36                      0                       # What write queue length does an incoming req see
system.mem_ctrls.wrQLenPdf::37                      0                       # What write queue length does an incoming req see
system.mem_ctrls.wrQLenPdf::38                      0                       # What write queue length does an incoming req see
system.mem_ctrls.wrQLenPdf::39                      0                       # What write queue length does an incoming req see
system.mem_ctrls.wrQLenPdf::40                      0                       # What write queue length does an incoming req see
system.mem_ctrls.wrQLenPdf::41                      0                       # What write queue length does an incoming req see
system.mem_ctrls.wrQLenPdf::42                      0                       # What write queue length does an incoming req see
system.mem_ctrls.wrQLenPdf::43                      0                       # What write queue length does an incoming req see
system.mem_ctrls.wrQLenPdf::44                      0                       # What write queue length does an incoming req see
system.mem_ctrls.wrQLenPdf::45                      0                       # What write queue length does an incoming req see
system.mem_ctrls.wrQLenPdf::46                      0                       # What write queue length does an incoming req see
system.mem_ctrls.wrQLenPdf::47                      0                       # What write queue length does an incoming req see
system.mem_ctrls.wrQLenPdf::48                      0                       # What write queue length does an incoming req see
system.mem_ctrls.wrQLenPdf::49                      0                       # What write queue length does an incoming req see
system.mem_ctrls.wrQLenPdf::50                      0                       # What write queue length does an incoming req see
system.mem_ctrls.wrQLenPdf::51                      0                       # What write queue length does an incoming req see
system.mem_ctrls.wrQLenPdf::52                      0                       # What write queue length does an incoming req see
system.mem_ctrls.wrQLenPdf::53                      0                       # What write queue length does an incoming req see
system.mem_ctrls.wrQLenPdf::54                      0                       # What write queue length does an incoming req see
system.mem_ctrls.wrQLenPdf::55                      0                       # What write queue length does an incoming req see
system.mem_ctrls.wrQLenPdf::56                      0                       # What write queue length does an incoming req see
system.mem_ctrls.wrQLenPdf::57                      0                       # What write queue length does an incoming req see
system.mem_ctrls.wrQLenPdf::58                      0                       # What write queue length does an incoming req see
system.mem_ctrls.wrQLenPdf::59                      0                       # What write queue length does an incoming req see
system.mem_ctrls.wrQLenPdf::60                      0                       # What write queue length does an incoming req see
system.mem_ctrls.wrQLenPdf::61                      0                       # What write queue length does an incoming req see
system.mem_ctrls.wrQLenPdf::62                      0                       # What write queue length does an incoming req see
system.mem_ctrls.wrQLenPdf::63                      0                       # What write queue length does an incoming req see
system.mem_ctrls.totQLat                            0                       # Total ticks spent queuing
system.mem_ctrls.totMemAccLat                       0                       # Total ticks spent from burst creation until serviced by the DRAM
system.mem_ctrls.totBusLat                          0                       # Total ticks spent in databus transfers
system.mem_ctrls.avgQLat                          nan                       # Average queueing delay per DRAM burst
system.mem_ctrls.avgBusLat                        nan                       # Average bus latency per DRAM burst
system.mem_ctrls.avgMemAccLat                     nan                       # Average memory access latency per DRAM burst
system.mem_ctrls.avgRdBW                         0.00                       # Average DRAM read bandwidth in MiByte/s
system.mem_ctrls.avgWrBW                         0.00                       # Average achieved write bandwidth in MiByte/s
system.mem_ctrls.avgRdBWSys                      0.00                       # Average system read bandwidth in MiByte/s
system.mem_ctrls.avgWrBWSys                      0.00                       # Average system write bandwidth in MiByte/s
system.mem_ctrls.peakBW                      12800.00                       # Theoretical peak bandwidth in MiByte/s
system.mem_ctrls.busUtil                         0.00                       # Data bus utilization in percentage
system.mem_ctrls.busUtilRead                     0.00                       # Data bus utilization in percentage for reads
system.mem_ctrls.busUtilWrite                    0.00                       # Data bus utilization in percentage for writes
system.mem_ctrls.avgRdQLen                       0.00                       # Average read queue length when enqueuing
system.mem_ctrls.avgWrQLen                       0.00                       # Average write queue length when enqueuing
system.mem_ctrls.readRowHits                        0                       # Number of row buffer hits during reads
system.mem_ctrls.writeRowHits                       0                       # Number of row buffer hits during writes
system.mem_ctrls.readRowHitRate                   nan                       # Row buffer hit rate for reads
system.mem_ctrls.writeRowHitRate                  nan                       # Row buffer hit rate for writes
system.mem_ctrls.avgGap                           nan                       # Average gap between requests
system.mem_ctrls.pageHitRate                      nan                       # Row buffer hit rate, read and write combined
system.mem_ctrls.memoryStateTime::IDLE   4616918112500                       # Time in different power states
system.mem_ctrls.memoryStateTime::REF    159494920000                       # Time in different power states
system.mem_ctrls.memoryStateTime::PRE_PDN            0                       # Time in different power states
system.mem_ctrls.memoryStateTime::ACT               0                       # Time in different power states
system.mem_ctrls.memoryStateTime::ACT_PDN            0                       # Time in different power states
system.mem_ctrls.actEnergy::0                       0                       # Energy for activate commands per rank (pJ)
system.mem_ctrls.actEnergy::1                       0                       # Energy for activate commands per rank (pJ)
system.mem_ctrls.preEnergy::0                       0                       # Energy for precharge commands per rank (pJ)
system.mem_ctrls.preEnergy::1                       0                       # Energy for precharge commands per rank (pJ)
system.mem_ctrls.readEnergy::0                      0                       # Energy for read commands per rank (pJ)
system.mem_ctrls.readEnergy::1                      0                       # Energy for read commands per rank (pJ)
system.mem_ctrls.writeEnergy::0                     0                       # Energy for write commands per rank (pJ)
system.mem_ctrls.writeEnergy::1                     0                       # Energy for write commands per rank (pJ)
system.mem_ctrls.refreshEnergy::0        311972063520                       # Energy for refresh commands per rank (pJ)
system.mem_ctrls.refreshEnergy::1        311972063520                       # Energy for refresh commands per rank (pJ)
system.mem_ctrls.actBackEnergy::0        103325103270                       # Energy for active background per rank (pJ)
system.mem_ctrls.actBackEnergy::1        103325103270                       # Energy for active background per rank (pJ)
system.mem_ctrls.preBackEnergy::0        2775211755750                       # Energy for precharge background per rank (pJ)
system.mem_ctrls.preBackEnergy::1        2775211755750                       # Energy for precharge background per rank (pJ)
system.mem_ctrls.totalEnergy::0          3190508922540                       # Total energy per rank (pJ)
system.mem_ctrls.totalEnergy::1          3190508922540                       # Total energy per rank (pJ)
system.mem_ctrls.averagePower::0           667.971742                       # Core power per rank (mW)
system.mem_ctrls.averagePower::1           667.971742                       # Core power per rank (mW)
system.membus.trans_dist::ReadReq           403050335                       # Transaction distribution
system.membus.trans_dist::ReadResp          403050335                       # Transaction distribution
system.membus.trans_dist::WriteReq           20266144                       # Transaction distribution
system.membus.trans_dist::WriteResp          20266144                       # Transaction distribution
system.membus.trans_dist::SoftPFReq            144230                       # Transaction distribution
system.membus.trans_dist::SoftPFResp           144230                       # Transaction distribution
system.membus.trans_dist::MessageReq             4650                       # Transaction distribution
system.membus.trans_dist::MessageResp            4650                       # Transaction distribution
system.membus.pkt_count_system.apicbridge.master::system.cpu0.interrupts.int_slave          324                       # Packet count per connected master and slave (bytes)
system.membus.pkt_count_system.apicbridge.master::system.cpu1.interrupts.int_slave          196                       # Packet count per connected master and slave (bytes)
system.membus.pkt_count_system.apicbridge.master::system.cpu2.interrupts.int_slave          194                       # Packet count per connected master and slave (bytes)
system.membus.pkt_count_system.apicbridge.master::system.cpu3.interrupts.int_slave          194                       # Packet count per connected master and slave (bytes)
system.membus.pkt_count_system.apicbridge.master::total          908                       # Packet count per connected master and slave (bytes)
system.membus.pkt_count_system.iobridge.master::system.mem_ctrls.port        85560                       # Packet count per connected master and slave (bytes)
system.membus.pkt_count_system.iobridge.master::total        85560                       # Packet count per connected master and slave (bytes)
system.membus.pkt_count_system.cpu0.icache_port::system.mem_ctrls.port    571990310                       # Packet count per connected master and slave (bytes)
system.membus.pkt_count_system.cpu0.icache_port::total    571990310                       # Packet count per connected master and slave (bytes)
system.membus.pkt_count_system.cpu0.dcache_port::system.bridge.slave      5854068                       # Packet count per connected master and slave (bytes)
system.membus.pkt_count_system.cpu0.dcache_port::system.cpu0.interrupts.pio        11426                       # Packet count per connected master and slave (bytes)
system.membus.pkt_count_system.cpu0.dcache_port::system.mem_ctrls.port    151797764                       # Packet count per connected master and slave (bytes)
system.membus.pkt_count_system.cpu0.dcache_port::total    157663258                       # Packet count per connected master and slave (bytes)
system.membus.pkt_count_system.cpu0.itb.walker.port::system.mem_ctrls.port         7172                       # Packet count per connected master and slave (bytes)
system.membus.pkt_count_system.cpu0.itb.walker.port::total         7172                       # Packet count per connected master and slave (bytes)
system.membus.pkt_count_system.cpu0.dtb.walker.port::system.mem_ctrls.port         5686                       # Packet count per connected master and slave (bytes)
system.membus.pkt_count_system.cpu0.dtb.walker.port::total         5686                       # Packet count per connected master and slave (bytes)
system.membus.pkt_count_system.cpu0.interrupts.int_master::system.cpu1.interrupts.int_slave         2064                       # Packet count per connected master and slave (bytes)
system.membus.pkt_count_system.cpu0.interrupts.int_master::system.cpu2.interrupts.int_slave          198                       # Packet count per connected master and slave (bytes)
system.membus.pkt_count_system.cpu0.interrupts.int_master::system.cpu3.interrupts.int_slave          196                       # Packet count per connected master and slave (bytes)
system.membus.pkt_count_system.cpu0.interrupts.int_master::total         2458                       # Packet count per connected master and slave (bytes)
system.membus.pkt_count_system.cpu1.icache_port::system.mem_ctrls.port     34616910                       # Packet count per connected master and slave (bytes)
system.membus.pkt_count_system.cpu1.icache_port::total     34616910                       # Packet count per connected master and slave (bytes)
system.membus.pkt_count_system.cpu1.dcache_port::system.bridge.slave         2274                       # Packet count per connected master and slave (bytes)
system.membus.pkt_count_system.cpu1.dcache_port::system.cpu1.interrupts.pio        17866                       # Packet count per connected master and slave (bytes)
system.membus.pkt_count_system.cpu1.dcache_port::system.mem_ctrls.port     13860600                       # Packet count per connected master and slave (bytes)
system.membus.pkt_count_system.cpu1.dcache_port::total     13880740                       # Packet count per connected master and slave (bytes)
system.membus.pkt_count_system.cpu1.itb.walker.port::system.mem_ctrls.port         1212                       # Packet count per connected master and slave (bytes)
system.membus.pkt_count_system.cpu1.itb.walker.port::total         1212                       # Packet count per connected master and slave (bytes)
system.membus.pkt_count_system.cpu1.dtb.walker.port::system.mem_ctrls.port         1016                       # Packet count per connected master and slave (bytes)
system.membus.pkt_count_system.cpu1.dtb.walker.port::total         1016                       # Packet count per connected master and slave (bytes)
system.membus.pkt_count_system.cpu1.interrupts.int_master::system.cpu0.interrupts.int_slave         1900                       # Packet count per connected master and slave (bytes)
system.membus.pkt_count_system.cpu1.interrupts.int_master::system.cpu2.interrupts.int_slave         1698                       # Packet count per connected master and slave (bytes)
system.membus.pkt_count_system.cpu1.interrupts.int_master::system.cpu3.interrupts.int_slave          190                       # Packet count per connected master and slave (bytes)
system.membus.pkt_count_system.cpu1.interrupts.int_master::total         3788                       # Packet count per connected master and slave (bytes)
system.membus.pkt_count_system.cpu2.icache_port::system.mem_ctrls.port     34094516                       # Packet count per connected master and slave (bytes)
system.membus.pkt_count_system.cpu2.icache_port::total     34094516                       # Packet count per connected master and slave (bytes)
system.membus.pkt_count_system.cpu2.dcache_port::system.bridge.slave         3856                       # Packet count per connected master and slave (bytes)
system.membus.pkt_count_system.cpu2.dcache_port::system.cpu2.interrupts.pio        10040                       # Packet count per connected master and slave (bytes)
system.membus.pkt_count_system.cpu2.dcache_port::system.mem_ctrls.port     11817884                       # Packet count per connected master and slave (bytes)
system.membus.pkt_count_system.cpu2.dcache_port::total     11831780                       # Packet count per connected master and slave (bytes)
system.membus.pkt_count_system.cpu2.itb.walker.port::system.mem_ctrls.port         1476                       # Packet count per connected master and slave (bytes)
system.membus.pkt_count_system.cpu2.itb.walker.port::total         1476                       # Packet count per connected master and slave (bytes)
system.membus.pkt_count_system.cpu2.dtb.walker.port::system.mem_ctrls.port         1334                       # Packet count per connected master and slave (bytes)
system.membus.pkt_count_system.cpu2.dtb.walker.port::total         1334                       # Packet count per connected master and slave (bytes)
system.membus.pkt_count_system.cpu2.interrupts.int_master::system.cpu0.interrupts.int_slave           98                       # Packet count per connected master and slave (bytes)
system.membus.pkt_count_system.cpu2.interrupts.int_master::system.cpu1.interrupts.int_slave         1802                       # Packet count per connected master and slave (bytes)
system.membus.pkt_count_system.cpu2.interrupts.int_master::system.cpu3.interrupts.int_slave           52                       # Packet count per connected master and slave (bytes)
system.membus.pkt_count_system.cpu2.interrupts.int_master::total         1952                       # Packet count per connected master and slave (bytes)
system.membus.pkt_count_system.cpu3.icache_port::system.mem_ctrls.port     17126074                       # Packet count per connected master and slave (bytes)
system.membus.pkt_count_system.cpu3.icache_port::total     17126074                       # Packet count per connected master and slave (bytes)
system.membus.pkt_count_system.cpu3.dcache_port::system.bridge.slave         2410                       # Packet count per connected master and slave (bytes)
system.membus.pkt_count_system.cpu3.dcache_port::system.cpu3.interrupts.pio         3492                       # Packet count per connected master and slave (bytes)
system.membus.pkt_count_system.cpu3.dcache_port::system.mem_ctrls.port      5599418                       # Packet count per connected master and slave (bytes)
system.membus.pkt_count_system.cpu3.dcache_port::total      5605320                       # Packet count per connected master and slave (bytes)
system.membus.pkt_count_system.cpu3.itb.walker.port::system.mem_ctrls.port         4632                       # Packet count per connected master and slave (bytes)
system.membus.pkt_count_system.cpu3.itb.walker.port::total         4632                       # Packet count per connected master and slave (bytes)
system.membus.pkt_count_system.cpu3.dtb.walker.port::system.mem_ctrls.port         4422                       # Packet count per connected master and slave (bytes)
system.membus.pkt_count_system.cpu3.dtb.walker.port::total         4422                       # Packet count per connected master and slave (bytes)
system.membus.pkt_count_system.cpu3.interrupts.int_master::system.cpu0.interrupts.int_slave           12                       # Packet count per connected master and slave (bytes)
system.membus.pkt_count_system.cpu3.interrupts.int_master::system.cpu1.interrupts.int_slave          180                       # Packet count per connected master and slave (bytes)
system.membus.pkt_count_system.cpu3.interrupts.int_master::system.cpu2.interrupts.int_slave            2                       # Packet count per connected master and slave (bytes)
system.membus.pkt_count_system.cpu3.interrupts.int_master::total          194                       # Packet count per connected master and slave (bytes)
system.membus.pkt_count::total              846930718                       # Packet count per connected master and slave (bytes)
system.membus.pkt_size_system.apicbridge.master::system.cpu0.interrupts.int_slave          648                       # Cumulative packet size per connected master and slave (bytes)
system.membus.pkt_size_system.apicbridge.master::system.cpu1.interrupts.int_slave          392                       # Cumulative packet size per connected master and slave (bytes)
system.membus.pkt_size_system.apicbridge.master::system.cpu2.interrupts.int_slave          388                       # Cumulative packet size per connected master and slave (bytes)
system.membus.pkt_size_system.apicbridge.master::system.cpu3.interrupts.int_slave          388                       # Cumulative packet size per connected master and slave (bytes)
system.membus.pkt_size_system.apicbridge.master::total         1816                       # Cumulative packet size per connected master and slave (bytes)
system.membus.pkt_size_system.iobridge.master::system.mem_ctrls.port      2703200                       # Cumulative packet size per connected master and slave (bytes)
system.membus.pkt_size_system.iobridge.master::total      2703200                       # Cumulative packet size per connected master and slave (bytes)
system.membus.pkt_size_system.cpu0.icache_port::system.mem_ctrls.port   2287961240                       # Cumulative packet size per connected master and slave (bytes)
system.membus.pkt_size_system.cpu0.icache_port::total   2287961240                       # Cumulative packet size per connected master and slave (bytes)
system.membus.pkt_size_system.cpu0.dcache_port::system.bridge.slave      2955299                       # Cumulative packet size per connected master and slave (bytes)
system.membus.pkt_size_system.cpu0.dcache_port::system.cpu0.interrupts.pio        22852                       # Cumulative packet size per connected master and slave (bytes)
system.membus.pkt_size_system.cpu0.dcache_port::system.mem_ctrls.port    311913782                       # Cumulative packet size per connected master and slave (bytes)
system.membus.pkt_size_system.cpu0.dcache_port::total    314891933                       # Cumulative packet size per connected master and slave (bytes)
system.membus.pkt_size_system.cpu0.itb.walker.port::system.mem_ctrls.port        28688                       # Cumulative packet size per connected master and slave (bytes)
system.membus.pkt_size_system.cpu0.itb.walker.port::total        28688                       # Cumulative packet size per connected master and slave (bytes)
system.membus.pkt_size_system.cpu0.dtb.walker.port::system.mem_ctrls.port        22744                       # Cumulative packet size per connected master and slave (bytes)
system.membus.pkt_size_system.cpu0.dtb.walker.port::total        22744                       # Cumulative packet size per connected master and slave (bytes)
system.membus.pkt_size_system.cpu0.interrupts.int_master::system.cpu1.interrupts.int_slave         4128                       # Cumulative packet size per connected master and slave (bytes)
system.membus.pkt_size_system.cpu0.interrupts.int_master::system.cpu2.interrupts.int_slave          396                       # Cumulative packet size per connected master and slave (bytes)
system.membus.pkt_size_system.cpu0.interrupts.int_master::system.cpu3.interrupts.int_slave          392                       # Cumulative packet size per connected master and slave (bytes)
system.membus.pkt_size_system.cpu0.interrupts.int_master::total         4916                       # Cumulative packet size per connected master and slave (bytes)
system.membus.pkt_size_system.cpu1.icache_port::system.mem_ctrls.port    138467640                       # Cumulative packet size per connected master and slave (bytes)
system.membus.pkt_size_system.cpu1.icache_port::total    138467640                       # Cumulative packet size per connected master and slave (bytes)
system.membus.pkt_size_system.cpu1.dcache_port::system.bridge.slave         1347                       # Cumulative packet size per connected master and slave (bytes)
system.membus.pkt_size_system.cpu1.dcache_port::system.cpu1.interrupts.pio        35732                       # Cumulative packet size per connected master and slave (bytes)
system.membus.pkt_size_system.cpu1.dcache_port::system.mem_ctrls.port     49334079                       # Cumulative packet size per connected master and slave (bytes)
system.membus.pkt_size_system.cpu1.dcache_port::total     49371158                       # Cumulative packet size per connected master and slave (bytes)
system.membus.pkt_size_system.cpu1.itb.walker.port::system.mem_ctrls.port         4848                       # Cumulative packet size per connected master and slave (bytes)
system.membus.pkt_size_system.cpu1.itb.walker.port::total         4848                       # Cumulative packet size per connected master and slave (bytes)
system.membus.pkt_size_system.cpu1.dtb.walker.port::system.mem_ctrls.port         4064                       # Cumulative packet size per connected master and slave (bytes)
system.membus.pkt_size_system.cpu1.dtb.walker.port::total         4064                       # Cumulative packet size per connected master and slave (bytes)
system.membus.pkt_size_system.cpu1.interrupts.int_master::system.cpu0.interrupts.int_slave         3800                       # Cumulative packet size per connected master and slave (bytes)
system.membus.pkt_size_system.cpu1.interrupts.int_master::system.cpu2.interrupts.int_slave         3396                       # Cumulative packet size per connected master and slave (bytes)
system.membus.pkt_size_system.cpu1.interrupts.int_master::system.cpu3.interrupts.int_slave          380                       # Cumulative packet size per connected master and slave (bytes)
system.membus.pkt_size_system.cpu1.interrupts.int_master::total         7576                       # Cumulative packet size per connected master and slave (bytes)
system.membus.pkt_size_system.cpu2.icache_port::system.mem_ctrls.port    136378064                       # Cumulative packet size per connected master and slave (bytes)
system.membus.pkt_size_system.cpu2.icache_port::total    136378064                       # Cumulative packet size per connected master and slave (bytes)
system.membus.pkt_size_system.cpu2.dcache_port::system.bridge.slave         2114                       # Cumulative packet size per connected master and slave (bytes)
system.membus.pkt_size_system.cpu2.dcache_port::system.cpu2.interrupts.pio        20080                       # Cumulative packet size per connected master and slave (bytes)
system.membus.pkt_size_system.cpu2.dcache_port::system.mem_ctrls.port     40537386                       # Cumulative packet size per connected master and slave (bytes)
system.membus.pkt_size_system.cpu2.dcache_port::total     40559580                       # Cumulative packet size per connected master and slave (bytes)
system.membus.pkt_size_system.cpu2.itb.walker.port::system.mem_ctrls.port         5904                       # Cumulative packet size per connected master and slave (bytes)
system.membus.pkt_size_system.cpu2.itb.walker.port::total         5904                       # Cumulative packet size per connected master and slave (bytes)
system.membus.pkt_size_system.cpu2.dtb.walker.port::system.mem_ctrls.port         5336                       # Cumulative packet size per connected master and slave (bytes)
system.membus.pkt_size_system.cpu2.dtb.walker.port::total         5336                       # Cumulative packet size per connected master and slave (bytes)
system.membus.pkt_size_system.cpu2.interrupts.int_master::system.cpu0.interrupts.int_slave          196                       # Cumulative packet size per connected master and slave (bytes)
system.membus.pkt_size_system.cpu2.interrupts.int_master::system.cpu1.interrupts.int_slave         3604                       # Cumulative packet size per connected master and slave (bytes)
system.membus.pkt_size_system.cpu2.interrupts.int_master::system.cpu3.interrupts.int_slave          104                       # Cumulative packet size per connected master and slave (bytes)
system.membus.pkt_size_system.cpu2.interrupts.int_master::total         3904                       # Cumulative packet size per connected master and slave (bytes)
system.membus.pkt_size_system.cpu3.icache_port::system.mem_ctrls.port     68504296                       # Cumulative packet size per connected master and slave (bytes)
system.membus.pkt_size_system.cpu3.icache_port::total     68504296                       # Cumulative packet size per connected master and slave (bytes)
system.membus.pkt_size_system.cpu3.dcache_port::system.bridge.slave         1484                       # Cumulative packet size per connected master and slave (bytes)
system.membus.pkt_size_system.cpu3.dcache_port::system.cpu3.interrupts.pio         6984                       # Cumulative packet size per connected master and slave (bytes)
system.membus.pkt_size_system.cpu3.dcache_port::system.mem_ctrls.port     18928544                       # Cumulative packet size per connected master and slave (bytes)
system.membus.pkt_size_system.cpu3.dcache_port::total     18937012                       # Cumulative packet size per connected master and slave (bytes)
system.membus.pkt_size_system.cpu3.itb.walker.port::system.mem_ctrls.port        18528                       # Cumulative packet size per connected master and slave (bytes)
system.membus.pkt_size_system.cpu3.itb.walker.port::total        18528                       # Cumulative packet size per connected master and slave (bytes)
system.membus.pkt_size_system.cpu3.dtb.walker.port::system.mem_ctrls.port        17688                       # Cumulative packet size per connected master and slave (bytes)
system.membus.pkt_size_system.cpu3.dtb.walker.port::total        17688                       # Cumulative packet size per connected master and slave (bytes)
system.membus.pkt_size_system.cpu3.interrupts.int_master::system.cpu0.interrupts.int_slave           24                       # Cumulative packet size per connected master and slave (bytes)
system.membus.pkt_size_system.cpu3.interrupts.int_master::system.cpu1.interrupts.int_slave          360                       # Cumulative packet size per connected master and slave (bytes)
system.membus.pkt_size_system.cpu3.interrupts.int_master::system.cpu2.interrupts.int_slave            4                       # Cumulative packet size per connected master and slave (bytes)
system.membus.pkt_size_system.cpu3.interrupts.int_master::total          388                       # Cumulative packet size per connected master and slave (bytes)
system.membus.pkt_size::total              3057900523                       # Cumulative packet size per connected master and slave (bytes)
system.membus.snoops                                0                       # Total snoops (count)
system.membus.snoop_fanout::samples         420507993                       # Request fanout histogram
system.membus.snoop_fanout::mean            11.782284                       # Request fanout histogram
system.membus.snoop_fanout::stdev            0.412693                       # Request fanout histogram
system.membus.snoop_fanout::underflows              0      0.00%      0.00% # Request fanout histogram
system.membus.snoop_fanout::0                       0      0.00%      0.00% # Request fanout histogram
system.membus.snoop_fanout::1                       0      0.00%      0.00% # Request fanout histogram
system.membus.snoop_fanout::2                       0      0.00%      0.00% # Request fanout histogram
system.membus.snoop_fanout::3                       0      0.00%      0.00% # Request fanout histogram
system.membus.snoop_fanout::4                       0      0.00%      0.00% # Request fanout histogram
system.membus.snoop_fanout::5                       0      0.00%      0.00% # Request fanout histogram
system.membus.snoop_fanout::6                       0      0.00%      0.00% # Request fanout histogram
system.membus.snoop_fanout::7                       0      0.00%      0.00% # Request fanout histogram
system.membus.snoop_fanout::8                       0      0.00%      0.00% # Request fanout histogram
system.membus.snoop_fanout::9                       0      0.00%      0.00% # Request fanout histogram
system.membus.snoop_fanout::10                      0      0.00%      0.00% # Request fanout histogram
system.membus.snoop_fanout::11               91551308     21.77%     21.77% # Request fanout histogram
system.membus.snoop_fanout::12              328956685     78.23%    100.00% # Request fanout histogram
system.membus.snoop_fanout::overflows               0      0.00%    100.00% # Request fanout histogram
system.membus.snoop_fanout::min_value              11                       # Request fanout histogram
system.membus.snoop_fanout::max_value              12                       # Request fanout histogram
system.membus.snoop_fanout::total           420507993                       # Request fanout histogram
system.cpu_voltage_domain.voltage                   1                       # Voltage in Volts
system.pc.south_bridge.ide.disks0.dma_read_full_pages            9                       # Number of full page size DMA reads (not PRD).
system.pc.south_bridge.ide.disks0.dma_read_bytes        36864                       # Number of bytes transfered via DMA reads (not PRD).
system.pc.south_bridge.ide.disks0.dma_read_txs            9                       # Number of DMA read transactions (not PRD).
system.pc.south_bridge.ide.disks0.dma_write_full_pages          648                       # Number of full page size DMA writes.
system.pc.south_bridge.ide.disks0.dma_write_bytes      2657280                       # Number of bytes transfered via DMA writes.
system.pc.south_bridge.ide.disks0.dma_write_txs          652                       # Number of DMA write transactions.
system.pc.south_bridge.ide.disks1.dma_read_full_pages            0                       # Number of full page size DMA reads (not PRD).
system.pc.south_bridge.ide.disks1.dma_read_bytes            0                       # Number of bytes transfered via DMA reads (not PRD).
system.pc.south_bridge.ide.disks1.dma_read_txs            0                       # Number of DMA read transactions (not PRD).
system.pc.south_bridge.ide.disks1.dma_write_full_pages            1                       # Number of full page size DMA writes.
system.pc.south_bridge.ide.disks1.dma_write_bytes         4096                       # Number of bytes transfered via DMA writes.
system.pc.south_bridge.ide.disks1.dma_write_txs            1                       # Number of DMA write transactions.
system.iobus.trans_dist::ReadReq              2920467                       # Transaction distribution
system.iobus.trans_dist::ReadResp             2920467                       # Transaction distribution
system.iobus.trans_dist::WriteReq               53617                       # Transaction distribution
system.iobus.trans_dist::WriteResp              53617                       # Transaction distribution
system.iobus.trans_dist::MessageReq               454                       # Transaction distribution
system.iobus.trans_dist::MessageResp              454                       # Transaction distribution
system.iobus.pkt_count_system.bridge.master::system.pc.south_bridge.cmos.pio           68                       # Packet count per connected master and slave (bytes)
system.iobus.pkt_count_system.bridge.master::system.pc.south_bridge.dma1.pio            6                       # Packet count per connected master and slave (bytes)
system.iobus.pkt_count_system.bridge.master::system.pc.south_bridge.ide.pio         6304                       # Packet count per connected master and slave (bytes)
system.iobus.pkt_count_system.bridge.master::system.pc.south_bridge.ide-pciconf          180                       # Packet count per connected master and slave (bytes)
system.iobus.pkt_count_system.bridge.master::system.pc.south_bridge.keyboard.pio         1376                       # Packet count per connected master and slave (bytes)
system.iobus.pkt_count_system.bridge.master::system.pc.south_bridge.pic1.pio           56                       # Packet count per connected master and slave (bytes)
system.iobus.pkt_count_system.bridge.master::system.pc.south_bridge.pic2.pio           52                       # Packet count per connected master and slave (bytes)
system.iobus.pkt_count_system.bridge.master::system.pc.south_bridge.pit.pio      5795590                       # Packet count per connected master and slave (bytes)
system.iobus.pkt_count_system.bridge.master::system.pc.south_bridge.speaker.pio            4                       # Packet count per connected master and slave (bytes)
system.iobus.pkt_count_system.bridge.master::system.pc.south_bridge.io_apic.pio         1236                       # Packet count per connected master and slave (bytes)
system.iobus.pkt_count_system.bridge.master::system.pc.i_dont_exist.pio           60                       # Packet count per connected master and slave (bytes)
system.iobus.pkt_count_system.bridge.master::system.pc.behind_pci.pio            2                       # Packet count per connected master and slave (bytes)
system.iobus.pkt_count_system.bridge.master::system.pc.com_1.pio        38848                       # Packet count per connected master and slave (bytes)
system.iobus.pkt_count_system.bridge.master::system.pc.fake_com_2.pio           12                       # Packet count per connected master and slave (bytes)
system.iobus.pkt_count_system.bridge.master::system.pc.fake_com_3.pio           12                       # Packet count per connected master and slave (bytes)
system.iobus.pkt_count_system.bridge.master::system.pc.fake_com_4.pio           12                       # Packet count per connected master and slave (bytes)
system.iobus.pkt_count_system.bridge.master::system.pc.fake_floppy.pio           10                       # Packet count per connected master and slave (bytes)
system.iobus.pkt_count_system.bridge.master::system.pc.pciconfig.pio        18780                       # Packet count per connected master and slave (bytes)
system.iobus.pkt_count_system.bridge.master::total      5862608                       # Packet count per connected master and slave (bytes)
system.iobus.pkt_count_system.pc.south_bridge.ide.dma::system.iobridge.slave        85560                       # Packet count per connected master and slave (bytes)
system.iobus.pkt_count_system.pc.south_bridge.ide.dma::total        85560                       # Packet count per connected master and slave (bytes)
system.iobus.pkt_count_system.pc.south_bridge.io_apic.int_master::system.apicbridge.slave          908                       # Packet count per connected master and slave (bytes)
system.iobus.pkt_count_system.pc.south_bridge.io_apic.int_master::total          908                       # Packet count per connected master and slave (bytes)
system.iobus.pkt_count::total                 5949076                       # Packet count per connected master and slave (bytes)
system.iobus.pkt_size_system.bridge.master::system.pc.south_bridge.cmos.pio           34                       # Cumulative packet size per connected master and slave (bytes)
system.iobus.pkt_size_system.bridge.master::system.pc.south_bridge.dma1.pio            3                       # Cumulative packet size per connected master and slave (bytes)
system.iobus.pkt_size_system.bridge.master::system.pc.south_bridge.ide.pio         3985                       # Cumulative packet size per connected master and slave (bytes)
system.iobus.pkt_size_system.bridge.master::system.pc.south_bridge.ide-pciconf          219                       # Cumulative packet size per connected master and slave (bytes)
system.iobus.pkt_size_system.bridge.master::system.pc.south_bridge.keyboard.pio          688                       # Cumulative packet size per connected master and slave (bytes)
system.iobus.pkt_size_system.bridge.master::system.pc.south_bridge.pic1.pio           28                       # Cumulative packet size per connected master and slave (bytes)
system.iobus.pkt_size_system.bridge.master::system.pc.south_bridge.pic2.pio           26                       # Cumulative packet size per connected master and slave (bytes)
system.iobus.pkt_size_system.bridge.master::system.pc.south_bridge.pit.pio      2897795                       # Cumulative packet size per connected master and slave (bytes)
system.iobus.pkt_size_system.bridge.master::system.pc.south_bridge.speaker.pio            2                       # Cumulative packet size per connected master and slave (bytes)
system.iobus.pkt_size_system.bridge.master::system.pc.south_bridge.io_apic.pio         2472                       # Cumulative packet size per connected master and slave (bytes)
system.iobus.pkt_size_system.bridge.master::system.pc.i_dont_exist.pio           30                       # Cumulative packet size per connected master and slave (bytes)
system.iobus.pkt_size_system.bridge.master::system.pc.behind_pci.pio            1                       # Cumulative packet size per connected master and slave (bytes)
system.iobus.pkt_size_system.bridge.master::system.pc.com_1.pio        19424                       # Cumulative packet size per connected master and slave (bytes)
system.iobus.pkt_size_system.bridge.master::system.pc.fake_com_2.pio            6                       # Cumulative packet size per connected master and slave (bytes)
system.iobus.pkt_size_system.bridge.master::system.pc.fake_com_3.pio            6                       # Cumulative packet size per connected master and slave (bytes)
system.iobus.pkt_size_system.bridge.master::system.pc.fake_com_4.pio            6                       # Cumulative packet size per connected master and slave (bytes)
system.iobus.pkt_size_system.bridge.master::system.pc.fake_floppy.pio            5                       # Cumulative packet size per connected master and slave (bytes)
system.iobus.pkt_size_system.bridge.master::system.pc.pciconfig.pio        35514                       # Cumulative packet size per connected master and slave (bytes)
system.iobus.pkt_size_system.bridge.master::total      2960244                       # Cumulative packet size per connected master and slave (bytes)
system.iobus.pkt_size_system.pc.south_bridge.ide.dma::system.iobridge.slave      2703200                       # Cumulative packet size per connected master and slave (bytes)
system.iobus.pkt_size_system.pc.south_bridge.ide.dma::total      2703200                       # Cumulative packet size per connected master and slave (bytes)
system.iobus.pkt_size_system.pc.south_bridge.io_apic.int_master::system.apicbridge.slave         1816                       # Cumulative packet size per connected master and slave (bytes)
system.iobus.pkt_size_system.pc.south_bridge.io_apic.int_master::total         1816                       # Cumulative packet size per connected master and slave (bytes)
system.iobus.pkt_size::total                  5665260                       # Cumulative packet size per connected master and slave (bytes)
system.cpu_clk_domain.clock                       500                       # Clock period in ticks
system.cpu0.apic_clk_domain.clock                8000                       # Clock period in ticks
system.cpu0.numCycles                      9553361805                       # number of cpu cycles simulated
system.cpu0.numWorkItemsStarted                     0                       # number of work items this cpu started
system.cpu0.numWorkItemsCompleted                   0                       # number of work items this cpu completed
system.cpu0.committedInsts                  216410014                       # Number of instructions committed
system.cpu0.committedOps                    558765867                       # Number of ops (including micro ops) committed
system.cpu0.num_int_alu_accesses            496667865                       # Number of integer alu accesses
system.cpu0.num_fp_alu_accesses                 25740                       # Number of float alu accesses
system.cpu0.num_func_calls                    2336411                       # number of times a function call or return occured
system.cpu0.num_conditional_control_insts     68824789                       # number of instructions that are conditional controls
system.cpu0.num_int_insts                   496667865                       # number of integer instructions
system.cpu0.num_fp_insts                        25740                       # number of float instructions
system.cpu0.num_int_register_reads          786525138                       # number of times the integer registers were read
system.cpu0.num_int_register_writes         417114019                       # number of times the integer registers were written
system.cpu0.num_fp_register_reads               42382                       # number of times the floating registers were read
system.cpu0.num_fp_register_writes              20345                       # number of times the floating registers were written
system.cpu0.num_cc_register_reads           358892547                       # number of times the CC registers were read
system.cpu0.num_cc_register_writes          157849979                       # number of times the CC registers were written
system.cpu0.num_mem_refs                     78834759                       # number of memory refs
system.cpu0.num_load_insts                   64772085                       # Number of load instructions
system.cpu0.num_store_insts                  14062674                       # Number of store instructions
system.cpu0.num_idle_cycles              8925768782.735840                       # Number of idle cycles
system.cpu0.num_busy_cycles              627593022.264160                       # Number of busy cycles
system.cpu0.not_idle_fraction                0.065693                       # Percentage of non-idle cycles
system.cpu0.idle_fraction                    0.934307                       # Percentage of idle cycles
system.cpu0.Branches                         72720539                       # Number of branches fetched
system.cpu0.op_class::No_OpClass              7612287      1.36%      1.36% # Class of executed instruction
system.cpu0.op_class::IntAlu                472090874     84.49%     85.85% # Class of executed instruction
system.cpu0.op_class::IntMult                  189254      0.03%     85.88% # Class of executed instruction
system.cpu0.op_class::IntDiv                    20635      0.00%     85.89% # Class of executed instruction
system.cpu0.op_class::FloatAdd                  18238      0.00%     85.89% # Class of executed instruction
system.cpu0.op_class::FloatCmp                      0      0.00%     85.89% # Class of executed instruction
system.cpu0.op_class::FloatCvt                      0      0.00%     85.89% # Class of executed instruction
system.cpu0.op_class::FloatMult                     0      0.00%     85.89% # Class of executed instruction
system.cpu0.op_class::FloatDiv                      0      0.00%     85.89% # Class of executed instruction
system.cpu0.op_class::FloatSqrt                     0      0.00%     85.89% # Class of executed instruction
system.cpu0.op_class::SimdAdd                       0      0.00%     85.89% # Class of executed instruction
system.cpu0.op_class::SimdAddAcc                    0      0.00%     85.89% # Class of executed instruction
system.cpu0.op_class::SimdAlu                       0      0.00%     85.89% # Class of executed instruction
system.cpu0.op_class::SimdCmp                       0      0.00%     85.89% # Class of executed instruction
system.cpu0.op_class::SimdCvt                       0      0.00%     85.89% # Class of executed instruction
system.cpu0.op_class::SimdMisc                      0      0.00%     85.89% # Class of executed instruction
system.cpu0.op_class::SimdMult                      0      0.00%     85.89% # Class of executed instruction
system.cpu0.op_class::SimdMultAcc                   0      0.00%     85.89% # Class of executed instruction
system.cpu0.op_class::SimdShift                     0      0.00%     85.89% # Class of executed instruction
system.cpu0.op_class::SimdShiftAcc                  0      0.00%     85.89% # Class of executed instruction
system.cpu0.op_class::SimdSqrt                      0      0.00%     85.89% # Class of executed instruction
system.cpu0.op_class::SimdFloatAdd                  0      0.00%     85.89% # Class of executed instruction
system.cpu0.op_class::SimdFloatAlu                  0      0.00%     85.89% # Class of executed instruction
system.cpu0.op_class::SimdFloatCmp                  0      0.00%     85.89% # Class of executed instruction
system.cpu0.op_class::SimdFloatCvt                  0      0.00%     85.89% # Class of executed instruction
system.cpu0.op_class::SimdFloatDiv                  0      0.00%     85.89% # Class of executed instruction
system.cpu0.op_class::SimdFloatMisc                 0      0.00%     85.89% # Class of executed instruction
system.cpu0.op_class::SimdFloatMult                 0      0.00%     85.89% # Class of executed instruction
system.cpu0.op_class::SimdFloatMultAcc              0      0.00%     85.89% # Class of executed instruction
system.cpu0.op_class::SimdFloatSqrt                 0      0.00%     85.89% # Class of executed instruction
system.cpu0.op_class::MemRead                64772085     11.59%     97.48% # Class of executed instruction
system.cpu0.op_class::MemWrite               14062674      2.52%    100.00% # Class of executed instruction
system.cpu0.op_class::IprAccess                     0      0.00%    100.00% # Class of executed instruction
system.cpu0.op_class::InstPrefetch                  0      0.00%    100.00% # Class of executed instruction
system.cpu0.op_class::total                 558766047                       # Class of executed instruction
system.cpu0.kern.inst.arm                           0                       # number of arm instructions executed
system.cpu0.kern.inst.quiesce                    5473                       # number of quiesce instructions executed
[...]
system.cpu1.num_int_alu_accesses                    0                       # Number of integer alu accesses
system.cpu1.num_fp_alu_accesses                     0                       # Number of float alu accesses
system.cpu1.num_func_calls                          0                       # number of times a function call or return occured
system.cpu1.num_conditional_control_insts            0                       # number of instructions that are conditional controls
system.cpu1.num_int_insts                           0                       # number of integer instructions
system.cpu1.num_fp_insts                            0                       # number of float instructions
system.cpu1.num_int_register_reads                  0                       # number of times the integer registers were read
system.cpu1.num_int_register_writes                 0                       # number of times the integer registers were written
system.cpu1.num_fp_register_reads                   0                       # number of times the floating registers were read
system.cpu1.num_fp_register_writes                  0                       # number of times the floating registers were written
system.cpu1.num_mem_refs                            0                       # number of memory refs
system.cpu1.num_load_insts                          0                       # Number of load instructions
system.cpu1.num_store_insts                         0                       # Number of store instructions
system.cpu1.num_idle_cycles                         0                       # Number of idle cycles
system.cpu1.num_busy_cycles                         0                       # Number of busy cycles
system.cpu1.not_idle_fraction                       0                       # Percentage of non-idle cycles
system.cpu1.idle_fraction                           1                       # Percentage of idle cycles
system.cpu1.op_class::No_OpClass                    0                       # Class of executed instruction
system.cpu1.op_class::IntAlu                        0                       # Class of executed instruction
system.cpu1.op_class::IntMult                       0                       # Class of executed instruction
system.cpu1.op_class::IntDiv                        0                       # Class of executed instruction
system.cpu1.op_class::FloatAdd                      0                       # Class of executed instruction
system.cpu1.op_class::FloatCmp                      0                       # Class of executed instruction
system.cpu1.op_class::FloatCvt                      0                       # Class of executed instruction
system.cpu1.op_class::FloatMult                     0                       # Class of executed instruction
system.cpu1.op_class::FloatDiv                      0                       # Class of executed instruction
system.cpu1.op_class::FloatSqrt                     0                       # Class of executed instruction
system.cpu1.op_class::SimdAdd                       0                       # Class of executed instruction
system.cpu1.op_class::SimdAddAcc                    0                       # Class of executed instruction
system.cpu1.op_class::SimdAlu                       0                       # Class of executed instruction
system.cpu1.op_class::SimdCmp                       0                       # Class of executed instruction
system.cpu1.op_class::SimdCvt                       0                       # Class of executed instruction
system.cpu1.op_class::SimdMisc                      0                       # Class of executed instruction
system.cpu1.op_class::SimdMult                      0                       # Class of executed instruction
system.cpu1.op_class::SimdMultAcc                   0                       # Class of executed instruction
system.cpu1.op_class::SimdShift                     0                       # Class of executed instruction
system.cpu1.op_class::SimdShiftAcc                  0                       # Class of executed instruction
system.cpu1.op_class::SimdSqrt                      0                       # Class of executed instruction
system.cpu1.op_class::SimdFloatAdd                  0                       # Class of executed instruction
system.cpu1.op_class::SimdFloatAlu                  0                       # Class of executed instruction
system.cpu1.op_class::SimdFloatCmp                  0                       # Class of executed instruction
system.cpu1.op_class::SimdFloatCvt                  0                       # Class of executed instruction
system.cpu1.op_class::SimdFloatDiv                  0                       # Class of executed instruction
system.cpu1.op_class::SimdFloatMisc                 0                       # Class of executed instruction
system.cpu1.op_class::SimdFloatMult                 0                       # Class of executed instruction
system.cpu1.op_class::SimdFloatMultAcc              0                       # Class of executed instruction
system.cpu1.op_class::SimdFloatSqrt                 0                       # Class of executed instruction
system.cpu1.op_class::MemRead                       0                       # Class of executed instruction
system.cpu1.op_class::MemWrite                      0                       # Class of executed instruction
system.cpu1.op_class::IprAccess                     0                       # Class of executed instruction
system.cpu1.op_class::InstPrefetch                  0                       # Class of executed instruction
system.cpu1.op_class::total                         0                       # Class of executed instruction
system.cpu1.kern.inst.arm                           0                       # number of arm instructions executed
system.cpu1.kern.inst.quiesce                       0                       # number of quiesce instructions executed
system.cpu2.apic_clk_domain.clock                8000                       # Clock period in ticks
system.cpu2.numCycles                          402121                       # number of cpu cycles simulated
system.cpu2.numWorkItemsStarted                     0                       # number of work items this cpu started
system.cpu2.numWorkItemsCompleted                   0                       # number of work items this cpu completed
system.cpu2.committedInsts                      35348                       # Number of instructions committed
system.cpu2.committedOps                        63469                       # Number of ops (including micro ops) committed
system.cpu2.num_int_alu_accesses                62332                       # Number of integer alu accesses
system.cpu2.num_fp_alu_accesses                    38                       # Number of float alu accesses
system.cpu2.num_func_calls                       1603                       # number of times a function call or return occured
system.cpu2.num_conditional_control_insts         4195                       # number of instructions that are conditional controls
system.cpu2.num_int_insts                       62332                       # number of integer instructions
system.cpu2.num_fp_insts                           38                       # number of float instructions
system.cpu2.num_int_register_reads             135075                       # number of times the integer registers were read
system.cpu2.num_int_register_writes             48058                       # number of times the integer registers were written
system.cpu2.num_fp_register_reads                  63                       # number of times the floating registers were read
system.cpu2.num_fp_register_writes                 31                       # number of times the floating registers were written
system.cpu2.num_cc_register_reads               30416                       # number of times the CC registers were read
system.cpu2.num_cc_register_writes              19037                       # number of times the CC registers were written
system.cpu2.num_mem_refs                        18827                       # number of memory refs
system.cpu2.num_load_insts                      10509                       # Number of load instructions
system.cpu2.num_store_insts                      8318                       # Number of store instructions
system.cpu2.num_idle_cycles              327014.952414                       # Number of idle cycles
system.cpu2.num_busy_cycles              75106.047586                       # Number of busy cycles
system.cpu2.not_idle_fraction                0.186775                       # Percentage of non-idle cycles
system.cpu2.idle_fraction                    0.813225                       # Percentage of idle cycles
system.cpu2.Branches                             6475                       # Number of branches fetched
system.cpu2.op_class::No_OpClass                  479      0.75%      0.75% # Class of executed instruction
system.cpu2.op_class::IntAlu                    44043     69.38%     70.14% # Class of executed instruction
system.cpu2.op_class::IntMult                     103      0.16%     70.30% # Class of executed instruction
system.cpu2.op_class::IntDiv                        0      0.00%     70.30% # Class of executed instruction
system.cpu2.op_class::FloatAdd                     28      0.04%     70.34% # Class of executed instruction
system.cpu2.op_class::FloatCmp                      0      0.00%     70.34% # Class of executed instruction
system.cpu2.op_class::FloatCvt                      0      0.00%     70.34% # Class of executed instruction
system.cpu2.op_class::FloatMult                     0      0.00%     70.34% # Class of executed instruction
system.cpu2.op_class::FloatDiv                      0      0.00%     70.34% # Class of executed instruction
system.cpu2.op_class::FloatSqrt                     0      0.00%     70.34% # Class of executed instruction
system.cpu2.op_class::SimdAdd                       0      0.00%     70.34% # Class of executed instruction
system.cpu2.op_class::SimdAddAcc                    0      0.00%     70.34% # Class of executed instruction
system.cpu2.op_class::SimdAlu                       0      0.00%     70.34% # Class of executed instruction
system.cpu2.op_class::SimdCmp                       0      0.00%     70.34% # Class of executed instruction
system.cpu2.op_class::SimdCvt                       0      0.00%     70.34% # Class of executed instruction
system.cpu2.op_class::SimdMisc                      0      0.00%     70.34% # Class of executed instruction
system.cpu2.op_class::SimdMult                      0      0.00%     70.34% # Class of executed instruction
system.cpu2.op_class::SimdMultAcc                   0      0.00%     70.34% # Class of executed instruction
system.cpu2.op_class::SimdShift                     0      0.00%     70.34% # Class of executed instruction
system.cpu2.op_class::SimdShiftAcc                  0      0.00%     70.34% # Class of executed instruction
system.cpu2.op_class::SimdSqrt                      0      0.00%     70.34% # Class of executed instruction
system.cpu2.op_class::SimdFloatAdd                  0      0.00%     70.34% # Class of executed instruction
system.cpu2.op_class::SimdFloatAlu                  0      0.00%     70.34% # Class of executed instruction
system.cpu2.op_class::SimdFloatCmp                  0      0.00%     70.34% # Class of executed instruction
system.cpu2.op_class::SimdFloatCvt                  0      0.00%     70.34% # Class of executed instruction
system.cpu2.op_class::SimdFloatDiv                  0      0.00%     70.34% # Class of executed instruction
system.cpu2.op_class::SimdFloatMisc                 0      0.00%     70.34% # Class of executed instruction
system.cpu2.op_class::SimdFloatMult                 0      0.00%     70.34% # Class of executed instruction
system.cpu2.op_class::SimdFloatMultAcc              0      0.00%     70.34% # Class of executed instruction
system.cpu2.op_class::SimdFloatSqrt                 0      0.00%     70.34% # Class of executed instruction
system.cpu2.op_class::MemRead                   10509     16.55%     86.90% # Class of executed instruction
system.cpu2.op_class::MemWrite                   8318     13.10%    100.00% # Class of executed instruction
system.cpu2.op_class::IprAccess                     0      0.00%    100.00% # Class of executed instruction
system.cpu2.op_class::InstPrefetch                  0      0.00%    100.00% # Class of executed instruction
system.cpu2.op_class::total                     63480                       # Class of executed instruction
system.cpu2.kern.inst.arm                           0                       # number of arm instructions executed
system.cpu2.kern.inst.quiesce                       0                       # number of quiesce instructions executed
system.cpu3.apic_clk_domain.clock                8000                       # Clock period in ticks
system.cpu3.numCycles                          400768                       # number of cpu cycles simulated
system.cpu3.numWorkItemsStarted                     0                       # number of work items this cpu started
system.cpu3.numWorkItemsCompleted                   0                       # number of work items this cpu completed
system.cpu3.committedInsts                     169386                       # Number of instructions committed
system.cpu3.committedOps                       304158                       # Number of ops (including micro ops) committed
system.cpu3.num_int_alu_accesses               297809                       # Number of integer alu accesses
system.cpu3.num_fp_alu_accesses                  1158                       # Number of float alu accesses
system.cpu3.num_func_calls                       6031                       # number of times a function call or return occured
system.cpu3.num_conditional_control_insts        23316                       # number of instructions that are conditional controls
system.cpu3.num_int_insts                      297809                       # number of integer instructions
system.cpu3.num_fp_insts                         1158                       # number of float instructions
system.cpu3.num_int_register_reads             630559                       # number of times the integer registers were read
system.cpu3.num_int_register_writes            227188                       # number of times the integer registers were written
system.cpu3.num_fp_register_reads                1946                       # number of times the floating registers were read
system.cpu3.num_fp_register_writes                912                       # number of times the floating registers were written
system.cpu3.num_cc_register_reads              160651                       # number of times the CC registers were read
system.cpu3.num_cc_register_writes             104034                       # number of times the CC registers were written
system.cpu3.num_mem_refs                        82079                       # number of memory refs
system.cpu3.num_load_insts                      40173                       # Number of load instructions
system.cpu3.num_store_insts                     41906                       # Number of store instructions
system.cpu3.num_idle_cycles              38871.847990                       # Number of idle cycles
system.cpu3.num_busy_cycles              361896.152010                       # Number of busy cycles
system.cpu3.not_idle_fraction                0.903007                       # Percentage of non-idle cycles
system.cpu3.idle_fraction                    0.096993                       # Percentage of idle cycles
system.cpu3.Branches                            31694                       # Number of branches fetched
system.cpu3.op_class::No_OpClass                 2983      0.98%      0.98% # Class of executed instruction
system.cpu3.op_class::IntAlu                   217711     71.57%     72.55% # Class of executed instruction
system.cpu3.op_class::IntMult                     511      0.17%     72.72% # Class of executed instruction
system.cpu3.op_class::IntDiv                       52      0.02%     72.74% # Class of executed instruction
system.cpu3.op_class::FloatAdd                    844      0.28%     73.02% # Class of executed instruction
system.cpu3.op_class::FloatCmp                      0      0.00%     73.02% # Class of executed instruction
system.cpu3.op_class::FloatCvt                      0      0.00%     73.02% # Class of executed instruction
system.cpu3.op_class::FloatMult                     0      0.00%     73.02% # Class of executed instruction
system.cpu3.op_class::FloatDiv                      0      0.00%     73.02% # Class of executed instruction
system.cpu3.op_class::FloatSqrt                     0      0.00%     73.02% # Class of executed instruction
system.cpu3.op_class::SimdAdd                       0      0.00%     73.02% # Class of executed instruction
system.cpu3.op_class::SimdAddAcc                    0      0.00%     73.02% # Class of executed instruction
system.cpu3.op_class::SimdAlu                       0      0.00%     73.02% # Class of executed instruction
system.cpu3.op_class::SimdCmp                       0      0.00%     73.02% # Class of executed instruction
system.cpu3.op_class::SimdCvt                       0      0.00%     73.02% # Class of executed instruction
system.cpu3.op_class::SimdMisc                      0      0.00%     73.02% # Class of executed instruction
system.cpu3.op_class::SimdMult                      0      0.00%     73.02% # Class of executed instruction
system.cpu3.op_class::SimdMultAcc                   0      0.00%     73.02% # Class of executed instruction
system.cpu3.op_class::SimdShift                     0      0.00%     73.02% # Class of executed instruction
system.cpu3.op_class::SimdShiftAcc                  0      0.00%     73.02% # Class of executed instruction
system.cpu3.op_class::SimdSqrt                      0      0.00%     73.02% # Class of executed instruction
system.cpu3.op_class::SimdFloatAdd                  0      0.00%     73.02% # Class of executed instruction
system.cpu3.op_class::SimdFloatAlu                  0      0.00%     73.02% # Class of executed instruction
system.cpu3.op_class::SimdFloatCmp                  0      0.00%     73.02% # Class of executed instruction
system.cpu3.op_class::SimdFloatCvt                  0      0.00%     73.02% # Class of executed instruction
system.cpu3.op_class::SimdFloatDiv                  0      0.00%     73.02% # Class of executed instruction
system.cpu3.op_class::SimdFloatMisc                 0      0.00%     73.02% # Class of executed instruction
system.cpu3.op_class::SimdFloatMult                 0      0.00%     73.02% # Class of executed instruction
system.cpu3.op_class::SimdFloatMultAcc              0      0.00%     73.02% # Class of executed instruction
system.cpu3.op_class::SimdFloatSqrt                 0      0.00%     73.02% # Class of executed instruction
system.cpu3.op_class::MemRead                   40173     13.21%     86.22% # Class of executed instruction
system.cpu3.op_class::MemWrite                  41906     13.78%    100.00% # Class of executed instruction
system.cpu3.op_class::IprAccess                     0      0.00%    100.00% # Class of executed instruction
system.cpu3.op_class::InstPrefetch                  0      0.00%    100.00% # Class of executed instruction
system.cpu3.op_class::total                    304180                       # Class of executed instruction
system.cpu3.kern.inst.arm                           0                       # number of arm instructions executed
system.cpu3.kern.inst.quiesce                       0                       # number of quiesce instructions executed

---------- End Simulation Statistics   ----------
