
---------- Begin Simulation Statistics ----------
sim_seconds                                  4.785243                       # Number of seconds simulated
sim_ticks                                4785242740000                       # Number of ticks simulated
final_tick                               4785242740000                       # Number of ticks from beginning of simulation (restored from checkpoints and never reset)
sim_freq                                 1000000000000                       # Frequency of simulated ticks
host_inst_rate                                1399930                       # Simulator instruction rate (inst/s)
host_op_rate                                  1399930                       # Simulator op (including micro ops) rate (op/s)
host_tick_rate                            63794456900                       # Simulator tick rate (ticks/s)
host_mem_usage                                 455664                       # Number of bytes of host memory used
host_seconds                                    75.01                       # Real time elapsed on the host
sim_insts                                   105009190                       # Number of instructions simulated
sim_ops                                     105009190                       # Number of ops (including micro ops) simulated
system.voltage_domain.voltage                       1                       # Voltage in Volts
system.clk_domain.clock                          1000                       # Clock period in ticks
system.mem_ctrls.bytes_read::cpu0.inst       79185408                       # Number of bytes read from this memory
system.mem_ctrls.bytes_read::cpu0.data      178931264                       # Number of bytes read from this memory
system.mem_ctrls.bytes_read::tsunami.ide        13312                       # Number of bytes read from this memory
system.mem_ctrls.bytes_read::cpu1.inst       29378496                       # Number of bytes read from this memory
system.mem_ctrls.bytes_read::cpu1.data        7025088                       # Number of bytes read from this memory
system.mem_ctrls.bytes_read::total          294533568                       # Number of bytes read from this memory
system.mem_ctrls.bytes_inst_read::cpu0.inst     79185408                       # Number of instructions bytes read from this memory
system.mem_ctrls.bytes_inst_read::cpu1.inst     29378496                       # Number of instructions bytes read from this memory
system.mem_ctrls.bytes_inst_read::total     108563904                       # Number of instructions bytes read from this memory
system.mem_ctrls.bytes_written::writebacks     31936256                       # Number of bytes written to this memory
system.mem_ctrls.bytes_written::tsunami.ide      2832384                       # Number of bytes written to this memory
system.mem_ctrls.bytes_written::total        34768640                       # Number of bytes written to this memory
system.mem_ctrls.num_reads::cpu0.inst         1237272                       # Number of read requests responded to by this memory
system.mem_ctrls.num_reads::cpu0.data         2795801                       # Number of read requests responded to by this memory
system.mem_ctrls.num_reads::tsunami.ide           208                       # Number of read requests responded to by this memory
system.mem_ctrls.num_reads::cpu1.inst          459039                       # Number of read requests responded to by this memory
system.mem_ctrls.num_reads::cpu1.data          109767                       # Number of read requests responded to by this memory
system.mem_ctrls.num_reads::total             4602087                       # Number of read requests responded to by this memory
system.mem_ctrls.num_writes::writebacks        499004                       # Number of write requests responded to by this memory
system.mem_ctrls.num_writes::tsunami.ide        44256                       # Number of write requests responded to by this memory
system.mem_ctrls.num_writes::total             543260                       # Number of write requests responded to by this memory
system.mem_ctrls.bw_read::cpu0.inst          16547835                       # Total read bandwidth from this memory (bytes/s)
system.mem_ctrls.bw_read::cpu0.data          37392307                       # Total read bandwidth from this memory (bytes/s)
system.mem_ctrls.bw_read::tsunami.ide            2782                       # Total read bandwidth from this memory (bytes/s)
system.mem_ctrls.bw_read::cpu1.inst           6139395                       # Total read bandwidth from this memory (bytes/s)
system.mem_ctrls.bw_read::cpu1.data           1468073                       # Total read bandwidth from this memory (bytes/s)
system.mem_ctrls.bw_read::total              61550392                       # Total read bandwidth from this memory (bytes/s)
system.mem_ctrls.bw_inst_read::cpu0.inst     16547835                       # Instruction read bandwidth from this memory (bytes/s)
system.mem_ctrls.bw_inst_read::cpu1.inst      6139395                       # Instruction read bandwidth from this memory (bytes/s)
system.mem_ctrls.bw_inst_read::total         22687230                       # Instruction read bandwidth from this memory (bytes/s)
system.mem_ctrls.bw_write::writebacks         6673905                       # Write bandwidth from this memory (bytes/s)
system.mem_ctrls.bw_write::tsunami.ide         591900                       # Write bandwidth from this memory (bytes/s)
system.mem_ctrls.bw_write::total              7265805                       # Write bandwidth from this memory (bytes/s)
system.mem_ctrls.bw_total::writebacks         6673905                       # Total bandwidth to/from this memory (bytes/s)
system.mem_ctrls.bw_total::cpu0.inst         16547835                       # Total bandwidth to/from this memory (bytes/s)
system.mem_ctrls.bw_total::cpu0.data         37392307                       # Total bandwidth to/from this memory (bytes/s)
system.mem_ctrls.bw_total::tsunami.ide         594682                       # Total bandwidth to/from this memory (bytes/s)
system.mem_ctrls.bw_total::cpu1.inst          6139395                       # Total bandwidth to/from this memory (bytes/s)
system.mem_ctrls.bw_total::cpu1.data          1468073                       # Total bandwidth to/from this memory (bytes/s)
system.mem_ctrls.bw_total::total             68816197                       # Total bandwidth to/from this memory (bytes/s)
system.mem_ctrls.readReqs                     4602087                       # Number of read requests accepted
system.mem_ctrls.writeReqs                     543260                       # Number of write requests accepted
system.mem_ctrls.readBursts                   4602087                       # Number of DRAM read bursts, including those serviced by the write queue
system.mem_ctrls.writeBursts                   543260                       # Number of DRAM write bursts, including those merged in the write queue
system.mem_ctrls.bytesReadDRAM              292365568                       # Total number of bytes read from DRAM
system.mem_ctrls.bytesReadWrQ                 2168000                       # Total number of bytes read from write queue
system.mem_ctrls.bytesWritten                34516160                       # Total number of bytes written to DRAM
system.mem_ctrls.bytesReadSys               294533568                       # Total read bytes from the system interface side
system.mem_ctrls.bytesWrittenSys             34768640                       # Total written bytes from the system interface side
system.mem_ctrls.servicedByWrQ                  33875                       # Number of DRAM read bursts serviced by the write queue
system.mem_ctrls.mergedWrBursts                  3920                       # Number of DRAM write bursts merged with an existing one
system.mem_ctrls.neitherReadNorWriteReqs        20916                       # Number of requests that are neither read nor write
system.mem_ctrls.perBankRdBursts::0            318718                       # Per bank write bursts
system.mem_ctrls.perBankRdBursts::1            315323                       # Per bank write bursts
system.mem_ctrls.perBankRdBursts::2            228367                       # Per bank write bursts
system.mem_ctrls.perBankRdBursts::3            191463                       # Per bank write bursts
system.mem_ctrls.perBankRdBursts::4            230038                       # Per bank write bursts
system.mem_ctrls.perBankRdBursts::5            272007                       # Per bank write bursts
system.mem_ctrls.perBankRdBursts::6            278891                       # Per bank write bursts
system.mem_ctrls.perBankRdBursts::7            276692                       # Per bank write bursts
system.mem_ctrls.perBankRdBursts::8            317390                       # Per bank write bursts
system.mem_ctrls.perBankRdBursts::9            367085                       # Per bank write bursts
system.mem_ctrls.perBankRdBursts::10           285427                       # Per bank write bursts
system.mem_ctrls.perBankRdBursts::11           331156                       # Per bank write bursts
system.mem_ctrls.perBankRdBursts::12           271563                       # Per bank write bursts
system.mem_ctrls.perBankRdBursts::13           322699                       # Per bank write bursts
system.mem_ctrls.perBankRdBursts::14           277698                       # Per bank write bursts
system.mem_ctrls.perBankRdBursts::15           283695                       # Per bank write bursts
system.mem_ctrls.perBankWrBursts::0             28495                       # Per bank write bursts
system.mem_ctrls.perBankWrBursts::1             44996                       # Per bank write bursts
system.mem_ctrls.perBankWrBursts::2             27755                       # Per bank write bursts
system.mem_ctrls.perBankWrBursts::3             25424                       # Per bank write bursts
system.mem_ctrls.perBankWrBursts::4             29687                       # Per bank write bursts
system.mem_ctrls.perBankWrBursts::5             23229                       # Per bank write bursts
system.mem_ctrls.perBankWrBursts::6             31407                       # Per bank write bursts
system.mem_ctrls.perBankWrBursts::7             76669                       # Per bank write bursts
system.mem_ctrls.perBankWrBursts::8             33108                       # Per bank write bursts
system.mem_ctrls.perBankWrBursts::9             28844                       # Per bank write bursts
system.mem_ctrls.perBankWrBursts::10            28276                       # Per bank write bursts
system.mem_ctrls.perBankWrBursts::11            57390                       # Per bank write bursts
system.mem_ctrls.perBankWrBursts::12            26230                       # Per bank write bursts
system.mem_ctrls.perBankWrBursts::13            24054                       # Per bank write bursts
system.mem_ctrls.perBankWrBursts::14            25793                       # Per bank write bursts
system.mem_ctrls.perBankWrBursts::15            27958                       # Per bank write bursts
system.mem_ctrls.numRdRetry                         0                       # Number of times read queue was full causing retry
system.mem_ctrls.numWrRetry                        14                       # Number of times write queue was full causing retry
system.mem_ctrls.totGap                  4785242510000                       # Total gap between requests
system.mem_ctrls.readPktSize::0                     0                       # Read request sizes (log2)
system.mem_ctrls.readPktSize::1                     0                       # Read request sizes (log2)
system.mem_ctrls.readPktSize::2                     0                       # Read request sizes (log2)
system.mem_ctrls.readPktSize::3                     0                       # Read request sizes (log2)
system.mem_ctrls.readPktSize::4                     0                       # Read request sizes (log2)
system.mem_ctrls.readPktSize::5                     0                       # Read request sizes (log2)
system.mem_ctrls.readPktSize::6               4602087                       # Read request sizes (log2)
system.mem_ctrls.writePktSize::0                    0                       # Write request sizes (log2)
system.mem_ctrls.writePktSize::1                    0                       # Write request sizes (log2)
system.mem_ctrls.writePktSize::2                    0                       # Write request sizes (log2)
system.mem_ctrls.writePktSize::3                    0                       # Write request sizes (log2)
system.mem_ctrls.writePktSize::4                    0                       # Write request sizes (log2)
system.mem_ctrls.writePktSize::5                    0                       # Write request sizes (log2)
system.mem_ctrls.writePktSize::6               543260                       # Write request sizes (log2)
system.mem_ctrls.rdQLenPdf::0                 4529173                       # What read queue length does an incoming req see
system.mem_ctrls.rdQLenPdf::1                   38977                       # What read queue length does an incoming req see
system.mem_ctrls.rdQLenPdf::2                      23                       # What read queue length does an incoming req see
system.mem_ctrls.rdQLenPdf::3                       6                       # What read queue length does an incoming req see
system.mem_ctrls.rdQLenPdf::4                       8                       # What read queue length does an incoming req see
system.mem_ctrls.rdQLenPdf::5                       4                       # What read queue length does an incoming req see
system.mem_ctrls.rdQLenPdf::6                       4                       # What read queue length does an incoming req see
system.mem_ctrls.rdQLenPdf::7                       3                       # What read queue length does an incoming req see
system.mem_ctrls.rdQLenPdf::8                       2                       # What read queue length does an incoming req see
system.mem_ctrls.rdQLenPdf::9                       1                       # What read queue length does an incoming req see
system.mem_ctrls.rdQLenPdf::10                      1                       # What read queue length does an incoming req see
system.mem_ctrls.rdQLenPdf::11                      1                       # What read queue length does an incoming req see
system.mem_ctrls.rdQLenPdf::12                      1                       # What read queue length does an incoming req see
system.mem_ctrls.rdQLenPdf::13                      1                       # What read queue length does an incoming req see
system.mem_ctrls.rdQLenPdf::14                      1                       # What read queue length does an incoming req see
system.mem_ctrls.rdQLenPdf::15                      2                       # What read queue length does an incoming req see
system.mem_ctrls.rdQLenPdf::16                      1                       # What read queue length does an incoming req see
system.mem_ctrls.rdQLenPdf::17                      1                       # What read queue length does an incoming req see
system.mem_ctrls.rdQLenPdf::18                      2                       # What read queue length does an incoming req see
system.mem_ctrls.rdQLenPdf::19                      0                       # What read queue length does an incoming req see
system.mem_ctrls.rdQLenPdf::20                      0                       # What read queue length does an incoming req see
system.mem_ctrls.rdQLenPdf::21                      0                       # What read queue length does an incoming req see
system.mem_ctrls.rdQLenPdf::22                      0                       # What read queue length does an incoming req see
system.mem_ctrls.rdQLenPdf::23                      0                       # What read queue length does an incoming req see
system.mem_ctrls.rdQLenPdf::24                      0                       # What read queue length does an incoming req see
system.mem_ctrls.rdQLenPdf::25                      0                       # What read queue length does an incoming req see
system.mem_ctrls.rdQLenPdf::26                      0                       # What read queue length does an incoming req see
system.mem_ctrls.rdQLenPdf::27                      0                       # What read queue length does an incoming req see
system.mem_ctrls.rdQLenPdf::28                      0                       # What read queue length does an incoming req see
system.mem_ctrls.rdQLenPdf::29                      0                       # What read queue length does an incoming req see
system.mem_ctrls.rdQLenPdf::30                      0                       # What read queue length does an incoming req see
system.mem_ctrls.rdQLenPdf::31                      0                       # What read queue length does an incoming req see
system.mem_ctrls.wrQLenPdf::0                       1                       # What write queue length does an incoming req see
system.mem_ctrls.wrQLenPdf::1                       1                       # What write queue length does an incoming req see
system.mem_ctrls.wrQLenPdf::2                       1                       # What write queue length does an incoming req see
system.mem_ctrls.wrQLenPdf::3                       1                       # What write queue length does an incoming req see
system.mem_ctrls.wrQLenPdf::4                       1                       # What write queue length does an incoming req see
system.mem_ctrls.wrQLenPdf::5                       1                       # What write queue length does an incoming req see
system.mem_ctrls.wrQLenPdf::6                       1                       # What write queue length does an incoming req see
system.mem_ctrls.wrQLenPdf::7                       1                       # What write queue length does an incoming req see
system.mem_ctrls.wrQLenPdf::8                       1                       # What write queue length does an incoming req see
system.mem_ctrls.wrQLenPdf::9                       1                       # What write queue length does an incoming req see
system.mem_ctrls.wrQLenPdf::10                      1                       # What write queue length does an incoming req see
system.mem_ctrls.wrQLenPdf::11                      1                       # What write queue length does an incoming req see
system.mem_ctrls.wrQLenPdf::12                      1                       # What write queue length does an incoming req see
system.mem_ctrls.wrQLenPdf::13                      1                       # What write queue length does an incoming req see
system.mem_ctrls.wrQLenPdf::14                      1                       # What write queue length does an incoming req see
system.mem_ctrls.wrQLenPdf::15                  25501                       # What write queue length does an incoming req see
system.mem_ctrls.wrQLenPdf::16                  26479                       # What write queue length does an incoming req see
system.mem_ctrls.wrQLenPdf::17                  28764                       # What write queue length does an incoming req see
system.mem_ctrls.wrQLenPdf::18                  28956                       # What write queue length does an incoming req see
system.mem_ctrls.wrQLenPdf::19                  29099                       # What write queue length does an incoming req see
system.mem_ctrls.wrQLenPdf::20                  29535                       # What write queue length does an incoming req see
system.mem_ctrls.wrQLenPdf::21                  29653                       # What write queue length does an incoming req see
system.mem_ctrls.wrQLenPdf::22                  30330                       # What write queue length does an incoming req see
system.mem_ctrls.wrQLenPdf::23                  30727                       # What write queue length does an incoming req see
system.mem_ctrls.wrQLenPdf::24                  31487                       # What write queue length does an incoming req see
system.mem_ctrls.wrQLenPdf::25                  31303                       # What write queue length does an incoming req see
system.mem_ctrls.wrQLenPdf::26                  31131                       # What write queue length does an incoming req see
system.mem_ctrls.wrQLenPdf::27                  30875                       # What write queue length does an incoming req see
system.mem_ctrls.wrQLenPdf::28                  30999                       # What write queue length does an incoming req see
system.mem_ctrls.wrQLenPdf::29                  30193                       # What write queue length does an incoming req see
system.mem_ctrls.wrQLenPdf::30                  29908                       # What write queue length does an incoming req see
system.mem_ctrls.wrQLenPdf::31                  29663                       # What write queue length does an incoming req see
system.mem_ctrls.wrQLenPdf::32                  29563                       # What write queue length does an incoming req see
system.mem_ctrls.wrQLenPdf::33                    485                       # What write queue length does an incoming req see
system.mem_ctrls.wrQLenPdf::34                    331                       # What write queue length does an incoming req see
system.mem_ctrls.wrQLenPdf::35                    272                       # What write queue length does an incoming req see
system.mem_ctrls.wrQLenPdf::36                    244                       # What write queue length does an incoming req see
system.mem_ctrls.wrQLenPdf::37                    211                       # What write queue length does an incoming req see
system.mem_ctrls.wrQLenPdf::38                    177                       # What write queue length does an incoming req see
system.mem_ctrls.wrQLenPdf::39                    176                       # What write queue length does an incoming req see
system.mem_ctrls.wrQLenPdf::40                    164                       # What write queue length does an incoming req see
system.mem_ctrls.wrQLenPdf::41                    165                       # What write queue length does an incoming req see
system.mem_ctrls.wrQLenPdf::42                    169                       # What write queue length does an incoming req see
system.mem_ctrls.wrQLenPdf::43                    185                       # What write queue length does an incoming req see
system.mem_ctrls.wrQLenPdf::44                    189                       # What write queue length does an incoming req see
system.mem_ctrls.wrQLenPdf::45                    191                       # What write queue length does an incoming req see
system.mem_ctrls.wrQLenPdf::46                    190                       # What write queue length does an incoming req see
system.mem_ctrls.wrQLenPdf::47                    174                       # What write queue length does an incoming req see
system.mem_ctrls.wrQLenPdf::48                    180                       # What write queue length does an incoming req see
system.mem_ctrls.wrQLenPdf::49                    163                       # What write queue length does an incoming req see
system.mem_ctrls.wrQLenPdf::50                    160                       # What write queue length does an incoming req see
system.mem_ctrls.wrQLenPdf::51                    139                       # What write queue length does an incoming req see
system.mem_ctrls.wrQLenPdf::52                    130                       # What write queue length does an incoming req see
system.mem_ctrls.wrQLenPdf::53                    135                       # What write queue length does an incoming req see
system.mem_ctrls.wrQLenPdf::54                    134                       # What write queue length does an incoming req see
system.mem_ctrls.wrQLenPdf::55                    134                       # What write queue length does an incoming req see
system.mem_ctrls.wrQLenPdf::56                    135                       # What write queue length does an incoming req see
system.mem_ctrls.wrQLenPdf::57                    128                       # What write queue length does an incoming req see
system.mem_ctrls.wrQLenPdf::58                    106                       # What write queue length does an incoming req see
system.mem_ctrls.wrQLenPdf::59                     92                       # What write queue length does an incoming req see
system.mem_ctrls.wrQLenPdf::60                     72                       # What write queue length does an incoming req see
system.mem_ctrls.wrQLenPdf::61                     55                       # What write queue length does an incoming req see
system.mem_ctrls.wrQLenPdf::62                     38                       # What write queue length does an incoming req see
system.mem_ctrls.wrQLenPdf::63                     35                       # What write queue length does an incoming req see
system.mem_ctrls.bytesPerActivate::samples      1555169                       # Bytes accessed per row activation
system.mem_ctrls.bytesPerActivate::mean    210.190445                       # Bytes accessed per row activation
system.mem_ctrls.bytesPerActivate::gmean   138.994098                       # Bytes accessed per row activation
system.mem_ctrls.bytesPerActivate::stdev   233.244449                       # Bytes accessed per row activation
system.mem_ctrls.bytesPerActivate::0-127       681231     43.80%     43.80% # Bytes accessed per row activation
system.mem_ctrls.bytesPerActivate::128-255       431319     27.73%     71.54% # Bytes accessed per row activation
system.mem_ctrls.bytesPerActivate::256-383       205112     13.19%     84.73% # Bytes accessed per row activation
system.mem_ctrls.bytesPerActivate::384-511        74699      4.80%     89.53% # Bytes accessed per row activation
system.mem_ctrls.bytesPerActivate::512-639        48396      3.11%     92.64% # Bytes accessed per row activation
system.mem_ctrls.bytesPerActivate::640-767        28646      1.84%     94.49% # Bytes accessed per row activation
system.mem_ctrls.bytesPerActivate::768-895        10723      0.69%     95.17% # Bytes accessed per row activation
system.mem_ctrls.bytesPerActivate::896-1023         6597      0.42%     95.60% # Bytes accessed per row activation
system.mem_ctrls.bytesPerActivate::1024-1151        68446      4.40%    100.00% # Bytes accessed per row activation
system.mem_ctrls.bytesPerActivate::total      1555169                       # Bytes accessed per row activation
system.mem_ctrls.rdPerTurnAround::samples        28975                       # Reads before turning the bus around for writes
system.mem_ctrls.rdPerTurnAround::mean     157.659258                       # Reads before turning the bus around for writes
system.mem_ctrls.rdPerTurnAround::stdev   6064.804813                       # Reads before turning the bus around for writes
system.mem_ctrls.rdPerTurnAround::0-32767        28974    100.00%    100.00% # Reads before turning the bus around for writes
system.mem_ctrls.rdPerTurnAround::1.01581e+06-1.04858e+06            1      0.00%    100.00% # Reads before turning the bus around for writes
system.mem_ctrls.rdPerTurnAround::total         28975                       # Reads before turning the bus around for writes
system.mem_ctrls.wrPerTurnAround::samples        28975                       # Writes before turning the bus around for reads
system.mem_ctrls.wrPerTurnAround::mean      18.613115                       # Writes before turning the bus around for reads
system.mem_ctrls.wrPerTurnAround::gmean     18.262531                       # Writes before turning the bus around for reads
system.mem_ctrls.wrPerTurnAround::stdev      5.652756                       # Writes before turning the bus around for reads
system.mem_ctrls.wrPerTurnAround::16-19         28000     96.64%     96.64% # Writes before turning the bus around for reads
system.mem_ctrls.wrPerTurnAround::20-23           104      0.36%     96.99% # Writes before turning the bus around for reads
system.mem_ctrls.wrPerTurnAround::24-27            89      0.31%     97.30% # Writes before turning the bus around for reads
system.mem_ctrls.wrPerTurnAround::28-31           225      0.78%     98.08% # Writes before turning the bus around for reads
system.mem_ctrls.wrPerTurnAround::32-35           125      0.43%     98.51% # Writes before turning the bus around for reads
system.mem_ctrls.wrPerTurnAround::36-39            77      0.27%     98.77% # Writes before turning the bus around for reads
system.mem_ctrls.wrPerTurnAround::40-43            61      0.21%     98.99% # Writes before turning the bus around for reads
system.mem_ctrls.wrPerTurnAround::44-47            48      0.17%     99.15% # Writes before turning the bus around for reads
system.mem_ctrls.wrPerTurnAround::48-51            27      0.09%     99.24% # Writes before turning the bus around for reads
system.mem_ctrls.wrPerTurnAround::52-55            26      0.09%     99.33% # Writes before turning the bus around for reads
system.mem_ctrls.wrPerTurnAround::56-59            26      0.09%     99.42% # Writes before turning the bus around for reads
system.mem_ctrls.wrPerTurnAround::60-63            22      0.08%     99.50% # Writes before turning the bus around for reads
system.mem_ctrls.wrPerTurnAround::64-67            28      0.10%     99.60% # Writes before turning the bus around for reads
system.mem_ctrls.wrPerTurnAround::68-71            17      0.06%     99.65% # Writes before turning the bus around for reads
system.mem_ctrls.wrPerTurnAround::72-75            11      0.04%     99.69% # Writes before turning the bus around for reads
system.mem_ctrls.wrPerTurnAround::76-79            13      0.04%     99.74% # Writes before turning the bus around for reads
system.mem_ctrls.wrPerTurnAround::80-83            21      0.07%     99.81% # Writes before turning the bus around for reads
system.mem_ctrls.wrPerTurnAround::84-87            10      0.03%     99.84% # Writes before turning the bus around for reads
system.mem_ctrls.wrPerTurnAround::88-91             9      0.03%     99.88% # Writes before turning the bus around for reads
system.mem_ctrls.wrPerTurnAround::92-95            11      0.04%     99.91% # Writes before turning the bus around for reads
system.mem_ctrls.wrPerTurnAround::96-99            16      0.06%     99.97% # Writes before turning the bus around for reads
system.mem_ctrls.wrPerTurnAround::100-103            2      0.01%     99.98% # Writes before turning the bus around for reads
system.mem_ctrls.wrPerTurnAround::104-107            1      0.00%     99.98% # Writes before turning the bus around for reads
system.mem_ctrls.wrPerTurnAround::108-111            1      0.00%     99.98% # Writes before turning the bus around for reads
system.mem_ctrls.wrPerTurnAround::112-115            1      0.00%     99.99% # Writes before turning the bus around for reads
system.mem_ctrls.wrPerTurnAround::120-123            1      0.00%     99.99% # Writes before turning the bus around for reads
system.mem_ctrls.wrPerTurnAround::124-127            2      0.01%    100.00% # Writes before turning the bus around for reads
system.mem_ctrls.wrPerTurnAround::136-139            1      0.00%    100.00% # Writes before turning the bus around for reads
system.mem_ctrls.wrPerTurnAround::total         28975                       # Writes before turning the bus around for reads
system.mem_ctrls.totQLat                  44185875749                       # Total ticks spent queuing
system.mem_ctrls.totMemAccLat            129839850749                       # Total ticks spent from burst creation until serviced by the DRAM
system.mem_ctrls.totBusLat                22841060000                       # Total ticks spent in databus transfers
system.mem_ctrls.avgQLat                      9672.47                       # Average queueing delay per DRAM burst
system.mem_ctrls.avgBusLat                    5000.00                       # Average bus latency per DRAM burst
system.mem_ctrls.avgMemAccLat                28422.47                       # Average memory access latency per DRAM burst
system.mem_ctrls.avgRdBW                        61.10                       # Average DRAM read bandwidth in MiByte/s
system.mem_ctrls.avgWrBW                         7.21                       # Average achieved write bandwidth in MiByte/s
system.mem_ctrls.avgRdBWSys                     61.55                       # Average system read bandwidth in MiByte/s
system.mem_ctrls.avgWrBWSys                      7.27                       # Average system write bandwidth in MiByte/s
system.mem_ctrls.peakBW                      12800.00                       # Theoretical peak bandwidth in MiByte/s
system.mem_ctrls.busUtil                         0.53                       # Data bus utilization in percentage
system.mem_ctrls.busUtilRead                     0.48                       # Data bus utilization in percentage for reads
system.mem_ctrls.busUtilWrite                    0.06                       # Data bus utilization in percentage for writes
system.mem_ctrls.avgRdQLen                       1.25                       # Average read queue length when enqueuing
system.mem_ctrls.avgWrQLen                      24.37                       # Average write queue length when enqueuing
system.mem_ctrls.readRowHits                  3201038                       # Number of row buffer hits during reads
system.mem_ctrls.writeRowHits                  351319                       # Number of row buffer hits during writes
system.mem_ctrls.readRowHitRate                 70.07                       # Row buffer hit rate for reads
system.mem_ctrls.writeRowHitRate                65.14                       # Row buffer hit rate for writes
system.mem_ctrls.avgGap                     930013.57                       # Average gap between requests
system.mem_ctrls.pageHitRate                    69.55                       # Row buffer hit rate, read and write combined
system.mem_ctrls.memoryStateTime::IDLE   2512346468753                       # Time in different power states
system.mem_ctrls.memoryStateTime::REF    159789760000                       # Time in different power states
system.mem_ctrls.memoryStateTime::PRE_PDN            0                       # Time in different power states
system.mem_ctrls.memoryStateTime::ACT    2113106424997                       # Time in different power states
system.mem_ctrls.memoryStateTime::ACT_PDN            0                       # Time in different power states
system.mem_ctrls.actEnergy::0              5120781120                       # Energy for activate commands per rank (pJ)
system.mem_ctrls.actEnergy::1              6636296520                       # Energy for activate commands per rank (pJ)
system.mem_ctrls.preEnergy::0              2794077000                       # Energy for precharge commands per rank (pJ)
system.mem_ctrls.preEnergy::1              3620995125                       # Energy for precharge commands per rank (pJ)
system.mem_ctrls.readEnergy::0            16469692200                       # Energy for read commands per rank (pJ)
system.mem_ctrls.readEnergy::1            19162353600                       # Energy for read commands per rank (pJ)
system.mem_ctrls.writeEnergy::0            1864049760                       # Energy for write commands per rank (pJ)
system.mem_ctrls.writeEnergy::1            1630711440                       # Energy for write commands per rank (pJ)
system.mem_ctrls.refreshEnergy::0        312548770560                       # Energy for refresh commands per rank (pJ)
system.mem_ctrls.refreshEnergy::1        312548770560                       # Energy for refresh commands per rank (pJ)
system.mem_ctrls.actBackEnergy::0        1122106288680                       # Energy for active background per rank (pJ)
system.mem_ctrls.actBackEnergy::1        1178319936060                       # Energy for active background per rank (pJ)
system.mem_ctrls.preBackEnergy::0        1886841822000                       # Energy for precharge background per rank (pJ)
system.mem_ctrls.preBackEnergy::1        1837531605000                       # Energy for precharge background per rank (pJ)
system.mem_ctrls.totalEnergy::0          3347745481320                       # Total energy per rank (pJ)
system.mem_ctrls.totalEnergy::1          3359450668305                       # Total energy per rank (pJ)
system.mem_ctrls.averagePower::0           699.597854                       # Core power per rank (mW)
system.mem_ctrls.averagePower::1           702.043955                       # Core power per rank (mW)
system.membus.trans_dist::ReadReq             4379147                       # Transaction distribution
system.membus.trans_dist::ReadResp            4379147                       # Transaction distribution
system.membus.trans_dist::WriteReq              20252                       # Transaction distribution
system.membus.trans_dist::WriteResp             20252                       # Transaction distribution
system.membus.trans_dist::Writeback            499004                       # Transaction distribution
system.membus.trans_dist::WriteInvalidateReq        44256                       # Transaction distribution
system.membus.trans_dist::WriteInvalidateResp        44256                       # Transaction distribution
system.membus.trans_dist::UpgradeReq            57686                       # Transaction distribution
system.membus.trans_dist::SCUpgradeReq          37912                       # Transaction distribution
system.membus.trans_dist::UpgradeResp           95598                       # Transaction distribution
system.membus.trans_dist::ReadExReq            371684                       # Transaction distribution
system.membus.trans_dist::ReadExResp           371684                       # Transaction distribution
system.membus.pkt_count_system.iocache.mem_side::system.mem_ctrls.port        88929                       # Packet count per connected master and slave (bytes)
system.membus.pkt_count_system.iocache.mem_side::total        88929                       # Packet count per connected master and slave (bytes)
system.membus.pkt_count_system.cpu0.icache.mem_side::system.mem_ctrls.port      2474595                       # Packet count per connected master and slave (bytes)
system.membus.pkt_count_system.cpu0.icache.mem_side::total      2474595                       # Packet count per connected master and slave (bytes)
system.membus.pkt_count_system.cpu0.dcache.mem_side::system.bridge.slave        42464                       # Packet count per connected master and slave (bytes)
system.membus.pkt_count_system.cpu0.dcache.mem_side::system.mem_ctrls.port      6105329                       # Packet count per connected master and slave (bytes)
system.membus.pkt_count_system.cpu0.dcache.mem_side::total      6147793                       # Packet count per connected master and slave (bytes)
system.membus.pkt_count_system.cpu1.icache.mem_side::system.mem_ctrls.port       918098                       # Packet count per connected master and slave (bytes)
system.membus.pkt_count_system.cpu1.icache.mem_side::total       918098                       # Packet count per connected master and slave (bytes)
system.membus.pkt_count_system.cpu1.dcache.mem_side::system.bridge.slave        12656                       # Packet count per connected master and slave (bytes)
system.membus.pkt_count_system.cpu1.dcache.mem_side::system.mem_ctrls.port       462689                       # Packet count per connected master and slave (bytes)
system.membus.pkt_count_system.cpu1.dcache.mem_side::total       475345                       # Packet count per connected master and slave (bytes)
system.membus.pkt_count::total               10104760                       # Packet count per connected master and slave (bytes)
system.membus.pkt_size_system.iocache.mem_side::system.mem_ctrls.port      2845696                       # Cumulative packet size per connected master and slave (bytes)
system.membus.pkt_size_system.iocache.mem_side::total      2845696                       # Cumulative packet size per connected master and slave (bytes)
system.membus.pkt_size_system.cpu0.icache.mem_side::system.mem_ctrls.port     79185408                       # Cumulative packet size per connected master and slave (bytes)
system.membus.pkt_size_system.cpu0.icache.mem_side::total     79185408                       # Cumulative packet size per connected master and slave (bytes)
system.membus.pkt_size_system.cpu0.dcache.mem_side::system.bridge.slave        76216                       # Cumulative packet size per connected master and slave (bytes)
system.membus.pkt_size_system.cpu0.dcache.mem_side::system.mem_ctrls.port    205158784                       # Cumulative packet size per connected master and slave (bytes)
system.membus.pkt_size_system.cpu0.dcache.mem_side::total    205235000                       # Cumulative packet size per connected master and slave (bytes)
system.membus.pkt_size_system.cpu1.icache.mem_side::system.mem_ctrls.port     29378496                       # Cumulative packet size per connected master and slave (bytes)
system.membus.pkt_size_system.cpu1.icache.mem_side::total     29378496                       # Cumulative packet size per connected master and slave (bytes)
system.membus.pkt_size_system.cpu1.dcache.mem_side::system.bridge.slave        50031                       # Cumulative packet size per connected master and slave (bytes)
system.membus.pkt_size_system.cpu1.dcache.mem_side::system.mem_ctrls.port     12733824                       # Cumulative packet size per connected master and slave (bytes)
system.membus.pkt_size_system.cpu1.dcache.mem_side::total     12783855                       # Cumulative packet size per connected master and slave (bytes)
system.membus.pkt_size::total               329428455                       # Cumulative packet size per connected master and slave (bytes)
system.membus.snoops                           216118                       # Total snoops (count)
system.membus.snoop_fanout::samples           5382395                       # Request fanout histogram
system.membus.snoop_fanout::mean                    4                       # Request fanout histogram
system.membus.snoop_fanout::stdev                   0                       # Request fanout histogram
system.membus.snoop_fanout::underflows              0      0.00%      0.00% # Request fanout histogram
system.membus.snoop_fanout::0                       0      0.00%      0.00% # Request fanout histogram
system.membus.snoop_fanout::1                       0      0.00%      0.00% # Request fanout histogram
system.membus.snoop_fanout::2                       0      0.00%      0.00% # Request fanout histogram
system.membus.snoop_fanout::3                       0      0.00%      0.00% # Request fanout histogram
system.membus.snoop_fanout::4                 5382395    100.00%    100.00% # Request fanout histogram
system.membus.snoop_fanout::5                       0      0.00%    100.00% # Request fanout histogram
system.membus.snoop_fanout::overflows               0      0.00%    100.00% # Request fanout histogram
system.membus.snoop_fanout::min_value               4                       # Request fanout histogram
system.membus.snoop_fanout::max_value               4                       # Request fanout histogram
system.membus.snoop_fanout::total             5382395                       # Request fanout histogram
system.membus.reqLayer0.occupancy            47813998                       # Layer occupancy (ticks)
system.membus.reqLayer0.utilization               0.0                       # Layer utilization (%)
system.membus.reqLayer1.occupancy          9729452277                       # Layer occupancy (ticks)
system.membus.reqLayer1.utilization               0.2                       # Layer utilization (%)
system.membus.respLayer1.occupancy           46180487                       # Layer occupancy (ticks)
system.membus.respLayer1.utilization              0.0                       # Layer utilization (%)
system.membus.respLayer2.occupancy        11578288493                       # Layer occupancy (ticks)
system.membus.respLayer2.utilization              0.2                       # Layer utilization (%)
system.membus.respLayer3.occupancy        26542021409                       # Layer occupancy (ticks)
system.membus.respLayer3.utilization              0.6                       # Layer utilization (%)
system.membus.respLayer4.occupancy         4296949248                       # Layer occupancy (ticks)
system.membus.respLayer4.utilization              0.1                       # Layer utilization (%)
system.membus.respLayer5.occupancy         1950503511                       # Layer occupancy (ticks)
system.membus.respLayer5.utilization              0.0                       # Layer utilization (%)
system.iocache.tags.replacements                44417                       # number of replacements
system.iocache.tags.tagsinuse                1.381108                       # Cycle average of tags in use
system.iocache.tags.total_refs                      0                       # Total number of references to valid blocks.
system.iocache.tags.sampled_refs                44417                       # Sample count of references to valid blocks.
system.iocache.tags.avg_refs                        0                       # Average number of references to valid blocks.
system.iocache.tags.warmup_cycle         4340642889000                       # Cycle when the warmup percentage was hit.
system.iocache.tags.occ_blocks::tsunami.ide     1.381108                       # Average occupied blocks per requestor
system.iocache.tags.occ_percent::tsunami.ide     0.086319                       # Average percentage of cache occupancy
system.iocache.tags.occ_percent::total       0.086319                       # Average percentage of cache occupancy
system.iocache.tags.occ_task_id_blocks::1023           16                       # Occupied blocks per task id
system.iocache.tags.age_task_id_blocks_1023::4           16                       # Occupied blocks per task id
system.iocache.tags.occ_task_id_percent::1023            1                       # Percentage of cache occupancy per task id
system.iocache.tags.tag_accesses               400185                       # Number of tag accesses
system.iocache.tags.data_accesses              400185                       # Number of data accesses
system.iocache.WriteInvalidateReq_hits::tsunami.ide        44256                       # number of WriteInvalidateReq hits
system.iocache.WriteInvalidateReq_hits::total        44256                       # number of WriteInvalidateReq hits
system.iocache.ReadReq_misses::tsunami.ide          209                       # number of ReadReq misses
system.iocache.ReadReq_misses::total              209                       # number of ReadReq misses
system.iocache.demand_misses::tsunami.ide          209                       # number of demand (read+write) misses
system.iocache.demand_misses::total               209                       # number of demand (read+write) misses
system.iocache.overall_misses::tsunami.ide          209                       # number of overall misses
system.iocache.overall_misses::total              209                       # number of overall misses
system.iocache.ReadReq_miss_latency::tsunami.ide     36779854                       # number of ReadReq miss cycles
system.iocache.ReadReq_miss_latency::total     36779854                       # number of ReadReq miss cycles
system.iocache.demand_miss_latency::tsunami.ide     36779854                       # number of demand (read+write) miss cycles
system.iocache.demand_miss_latency::total     36779854                       # number of demand (read+write) miss cycles
system.iocache.overall_miss_latency::tsunami.ide     36779854                       # number of overall miss cycles
system.iocache.overall_miss_latency::total     36779854                       # number of overall miss cycles
system.iocache.ReadReq_accesses::tsunami.ide          209                       # number of ReadReq accesses(hits+misses)
system.iocache.ReadReq_accesses::total            209                       # number of ReadReq accesses(hits+misses)
system.iocache.WriteInvalidateReq_accesses::tsunami.ide        44256                       # number of WriteInvalidateReq accesses(hits+misses)
system.iocache.WriteInvalidateReq_accesses::total        44256                       # number of WriteInvalidateReq accesses(hits+misses)
system.iocache.demand_accesses::tsunami.ide          209                       # number of demand (read+write) accesses
system.iocache.demand_accesses::total             209                       # number of demand (read+write) accesses
system.iocache.overall_accesses::tsunami.ide          209                       # number of overall (read+write) accesses
system.iocache.overall_accesses::total            209                       # number of overall (read+write) accesses
system.iocache.ReadReq_miss_rate::tsunami.ide            1                       # miss rate for ReadReq accesses
system.iocache.ReadReq_miss_rate::total             1                       # miss rate for ReadReq accesses
system.iocache.demand_miss_rate::tsunami.ide            1                       # miss rate for demand accesses
system.iocache.demand_miss_rate::total              1                       # miss rate for demand accesses
system.iocache.overall_miss_rate::tsunami.ide            1                       # miss rate for overall accesses
system.iocache.overall_miss_rate::total             1                       # miss rate for overall accesses
system.iocache.ReadReq_avg_miss_latency::tsunami.ide 175980.162679                       # average ReadReq miss latency
system.iocache.ReadReq_avg_miss_latency::total 175980.162679                       # average ReadReq miss latency
system.iocache.demand_avg_miss_latency::tsunami.ide 175980.162679                       # average overall miss latency
system.iocache.demand_avg_miss_latency::total 175980.162679                       # average overall miss latency
system.iocache.overall_avg_miss_latency::tsunami.ide 175980.162679                       # average overall miss latency
system.iocache.overall_avg_miss_latency::total 175980.162679                       # average overall miss latency
system.iocache.blocked_cycles::no_mshrs           463                       # number of cycles access was blocked
system.iocache.blocked_cycles::no_targets            0                       # number of cycles access was blocked
system.iocache.blocked::no_mshrs                   45                       # number of cycles access was blocked
system.iocache.blocked::no_targets                  0                       # number of cycles access was blocked
system.iocache.avg_blocked_cycles::no_mshrs    10.288889                       # average number of cycles each access was blocked
system.iocache.avg_blocked_cycles::no_targets          nan                       # average number of cycles each access was blocked
system.iocache.fast_writes                      44256                       # number of fast writes performed
system.iocache.cache_copies                         0                       # number of cache copies performed
system.iocache.ReadReq_mshr_misses::tsunami.ide          209                       # number of ReadReq MSHR misses
system.iocache.ReadReq_mshr_misses::total          209                       # number of ReadReq MSHR misses
system.iocache.WriteInvalidateReq_mshr_misses::tsunami.ide        44256                       # number of WriteInvalidateReq MSHR misses
system.iocache.WriteInvalidateReq_mshr_misses::total        44256                       # number of WriteInvalidateReq MSHR misses
system.iocache.demand_mshr_misses::tsunami.ide          209                       # number of demand (read+write) MSHR misses
system.iocache.demand_mshr_misses::total          209                       # number of demand (read+write) MSHR misses
system.iocache.overall_mshr_misses::tsunami.ide          209                       # number of overall MSHR misses
system.iocache.overall_mshr_misses::total          209                       # number of overall MSHR misses
system.iocache.ReadReq_mshr_miss_latency::tsunami.ide     25861354                       # number of ReadReq MSHR miss cycles
system.iocache.ReadReq_mshr_miss_latency::total     25861354                       # number of ReadReq MSHR miss cycles
system.iocache.WriteInvalidateReq_mshr_miss_latency::tsunami.ide   2734082731                       # number of WriteInvalidateReq MSHR miss cycles
system.iocache.WriteInvalidateReq_mshr_miss_latency::total   2734082731                       # number of WriteInvalidateReq MSHR miss cycles
system.iocache.demand_mshr_miss_latency::tsunami.ide     25861354                       # number of demand (read+write) MSHR miss cycles
system.iocache.demand_mshr_miss_latency::total     25861354                       # number of demand (read+write) MSHR miss cycles
system.iocache.overall_mshr_miss_latency::tsunami.ide     25861354                       # number of overall MSHR miss cycles
system.iocache.overall_mshr_miss_latency::total     25861354                       # number of overall MSHR miss cycles
system.iocache.ReadReq_mshr_miss_rate::tsunami.ide            1                       # mshr miss rate for ReadReq accesses
system.iocache.ReadReq_mshr_miss_rate::total            1                       # mshr miss rate for ReadReq accesses
system.iocache.WriteInvalidateReq_mshr_miss_rate::tsunami.ide            1                       # mshr miss rate for WriteInvalidateReq accesses
system.iocache.WriteInvalidateReq_mshr_miss_rate::total            1                       # mshr miss rate for WriteInvalidateReq accesses
system.iocache.demand_mshr_miss_rate::tsunami.ide            1                       # mshr miss rate for demand accesses
system.iocache.demand_mshr_miss_rate::total            1                       # mshr miss rate for demand accesses
system.iocache.overall_mshr_miss_rate::tsunami.ide            1                       # mshr miss rate for overall accesses
system.iocache.overall_mshr_miss_rate::total            1                       # mshr miss rate for overall accesses
system.iocache.ReadReq_avg_mshr_miss_latency::tsunami.ide 123738.535885                       # average ReadReq mshr miss latency
system.iocache.ReadReq_avg_mshr_miss_latency::total 123738.535885                       # average ReadReq mshr miss latency
system.iocache.WriteInvalidateReq_avg_mshr_miss_latency::tsunami.ide 61778.803575                       # average WriteInvalidateReq mshr miss latency
system.iocache.WriteInvalidateReq_avg_mshr_miss_latency::total 61778.803575                       # average WriteInvalidateReq mshr miss latency
system.iocache.demand_avg_mshr_miss_latency::tsunami.ide 123738.535885                       # average overall mshr miss latency
system.iocache.demand_avg_mshr_miss_latency::total 123738.535885                       # average overall mshr miss latency
system.iocache.overall_avg_mshr_miss_latency::tsunami.ide 123738.535885                       # average overall mshr miss latency
system.iocache.overall_avg_mshr_miss_latency::total 123738.535885                       # average overall mshr miss latency
system.iocache.no_allocate_misses                   0                       # Number of misses that were no-allocate
system.disk0.dma_read_full_pages                    0                       # Number of full page size DMA reads (not PRD).
system.disk0.dma_read_bytes                      4096                       # Number of bytes transfered via DMA reads (not PRD).
system.disk0.dma_read_txs                           1                       # Number of DMA read transactions (not PRD).
system.disk0.dma_write_full_pages                 326                       # Number of full page size DMA writes.
system.disk0.dma_write_bytes                  2824192                       # Number of bytes transfered via DMA writes.
system.disk0.dma_write_txs                        365                       # Number of DMA write transactions.
system.disk2.dma_read_full_pages                    0                       # Number of full page size DMA reads (not PRD).
system.disk2.dma_read_bytes                         0                       # Number of bytes transfered via DMA reads (not PRD).
system.disk2.dma_read_txs                           0                       # Number of DMA read transactions (not PRD).
system.disk2.dma_write_full_pages                   1                       # Number of full page size DMA writes.
system.disk2.dma_write_bytes                     8192                       # Number of bytes transfered via DMA writes.
system.disk2.dma_write_txs                          1                       # Number of DMA write transactions.
system.cpu_voltage_domain.voltage                   1                       # Voltage in Volts
system.cpu_clk_domain.clock                     10000                       # Clock period in ticks
system.cpu0.dtb.fetch_hits                          0                       # ITB hits
system.cpu0.dtb.fetch_misses                        0                       # ITB misses
system.cpu0.dtb.fetch_acv                           0                       # ITB acv
system.cpu0.dtb.fetch_accesses                      0                       # ITB accesses
system.cpu0.dtb.read_hits                    15301757                       # DTB read hits
system.cpu0.dtb.read_misses                      8074                       # DTB read misses
system.cpu0.dtb.read_acv                           26                       # DTB read access violations
system.cpu0.dtb.read_accesses                  642416                       # DTB read accesses
system.cpu0.dtb.write_hits                    7503461                       # DTB write hits
system.cpu0.dtb.write_misses                      834                       # DTB write misses
system.cpu0.dtb.write_acv                         108                       # DTB write access violations
system.cpu0.dtb.write_accesses                 241425                       # DTB write accesses
system.cpu0.dtb.data_hits                    22805218                       # DTB hits
system.cpu0.dtb.data_misses                      8908                       # DTB misses
system.cpu0.dtb.data_acv                          134                       # DTB access violations
system.cpu0.dtb.data_accesses                  883841                       # DTB accesses
system.cpu0.itb.fetch_hits                    4809699                       # ITB hits
system.cpu0.itb.fetch_misses                     4037                       # ITB misses
system.cpu0.itb.fetch_acv                           1                       # ITB acv
system.cpu0.itb.fetch_accesses                4813736                       # ITB accesses
system.cpu0.itb.read_hits                           0                       # DTB read hits
system.cpu0.itb.read_misses                         0                       # DTB read misses
system.cpu0.itb.read_acv                            0                       # DTB read access violations
system.cpu0.itb.read_accesses                       0                       # DTB read accesses
system.cpu0.itb.write_hits                          0                       # DTB write hits
system.cpu0.itb.write_misses                        0                       # DTB write misses
system.cpu0.itb.write_acv                           0                       # DTB write access violations
system.cpu0.itb.write_accesses                      0                       # DTB write accesses
system.cpu0.itb.data_hits                           0                       # DTB hits
system.cpu0.itb.data_misses                         0                       # DTB misses
system.cpu0.itb.data_acv                            0                       # DTB access violations
system.cpu0.itb.data_accesses                       0                       # DTB accesses
system.cpu0.numCycles                       478520779                       # number of cpu cycles simulated
system.cpu0.numWorkItemsStarted                     0                       # number of work items this cpu started
system.cpu0.numWorkItemsCompleted                   0                       # number of work items this cpu completed
system.cpu0.committedInsts                   86937309                       # Number of instructions committed
system.cpu0.committedOps                     86937309                       # Number of ops (including micro ops) committed
system.cpu0.num_int_alu_accesses             84113217                       # Number of integer alu accesses
system.cpu0.num_fp_alu_accesses                374235                       # Number of float alu accesses
system.cpu0.num_func_calls                    2679038                       # number of times a function call or return occured
system.cpu0.num_conditional_control_insts     11004768                       # number of instructions that are conditional controls
system.cpu0.num_int_insts                    84113217                       # number of integer instructions
system.cpu0.num_fp_insts                       374235                       # number of float instructions
system.cpu0.num_int_register_reads          115660885                       # number of times the integer registers were read
system.cpu0.num_int_register_writes          64451900                       # number of times the integer registers were written
system.cpu0.num_fp_register_reads              166835                       # number of times the floating registers were read
system.cpu0.num_fp_register_writes             169952                       # number of times the floating registers were written
system.cpu0.num_mem_refs                     22855839                       # number of memory refs
system.cpu0.num_load_insts                   15333449                       # Number of load instructions
system.cpu0.num_store_insts                   7522390                       # Number of store instructions
system.cpu0.num_idle_cycles              225556178.442295                       # Number of idle cycles
system.cpu0.num_busy_cycles              252964600.557705                       # Number of busy cycles
system.cpu0.not_idle_fraction                0.528639                       # Percentage of non-idle cycles
system.cpu0.idle_fraction                    0.471361                       # Percentage of idle cycles
system.cpu0.Branches                         14284328                       # Number of branches fetched
system.cpu0.op_class::No_OpClass              1553931      1.79%      1.79% # Class of executed instruction
system.cpu0.op_class::IntAlu                 60888199     70.03%     71.82% # Class of executed instruction
system.cpu0.op_class::IntMult                  159516      0.18%     72.00% # Class of executed instruction
system.cpu0.op_class::IntDiv                        0      0.00%     72.00% # Class of executed instruction
system.cpu0.op_class::FloatAdd                  78970      0.09%     72.09% # Class of executed instruction
system.cpu0.op_class::FloatCmp                      0      0.00%     72.09% # Class of executed instruction
system.cpu0.op_class::FloatCvt                      0      0.00%     72.09% # Class of executed instruction
system.cpu0.op_class::FloatMult                     0      0.00%     72.09% # Class of executed instruction
system.cpu0.op_class::FloatDiv                   3372      0.00%     72.10% # Class of executed instruction
system.cpu0.op_class::FloatSqrt                     0      0.00%     72.10% # Class of executed instruction
system.cpu0.op_class::SimdAdd                       0      0.00%     72.10% # Class of executed instruction
system.cpu0.op_class::SimdAddAcc                    0      0.00%     72.10% # Class of executed instruction
system.cpu0.op_class::SimdAlu                       0      0.00%     72.10% # Class of executed instruction
system.cpu0.op_class::SimdCmp                       0      0.00%     72.10% # Class of executed instruction
system.cpu0.op_class::SimdCvt                       0      0.00%     72.10% # Class of executed instruction
system.cpu0.op_class::SimdMisc                      0      0.00%     72.10% # Class of executed instruction
system.cpu0.op_class::SimdMult                      0      0.00%     72.10% # Class of executed instruction
system.cpu0.op_class::SimdMultAcc                   0      0.00%     72.10% # Class of executed instruction
system.cpu0.op_class::SimdShift                     0      0.00%     72.10% # Class of executed instruction
system.cpu0.op_class::SimdShiftAcc                  0      0.00%     72.10% # Class of executed instruction
system.cpu0.op_class::SimdSqrt                      0      0.00%     72.10% # Class of executed instruction
system.cpu0.op_class::SimdFloatAdd                  0      0.00%     72.10% # Class of executed instruction
system.cpu0.op_class::SimdFloatAlu                  0      0.00%     72.10% # Class of executed instruction
system.cpu0.op_class::SimdFloatCmp                  0      0.00%     72.10% # Class of executed instruction
system.cpu0.op_class::SimdFloatCvt                  0      0.00%     72.10% # Class of executed instruction
system.cpu0.op_class::SimdFloatDiv                  0      0.00%     72.10% # Class of executed instruction
system.cpu0.op_class::SimdFloatMisc                 0      0.00%     72.10% # Class of executed instruction
system.cpu0.op_class::SimdFloatMult                 0      0.00%     72.10% # Class of executed instruction
system.cpu0.op_class::SimdFloatMultAcc              0      0.00%     72.10% # Class of executed instruction
system.cpu0.op_class::SimdFloatSqrt                 0      0.00%     72.10% # Class of executed instruction
system.cpu0.op_class::MemRead                15676401     18.03%     90.12% # Class of executed instruction
system.cpu0.op_class::MemWrite                7598810      8.74%     98.86% # Class of executed instruction
system.cpu0.op_class::IprAccess                987152      1.14%    100.00% # Class of executed instruction
system.cpu0.op_class::InstPrefetch                  0      0.00%    100.00% # Class of executed instruction
system.cpu0.op_class::total                  86946351                       # Class of executed instruction
system.cpu0.kern.inst.arm                           0                       # number of arm instructions executed
system.cpu0.kern.inst.quiesce                    8003                       # number of quiesce instructions executed
system.cpu0.kern.inst.hwrei                    222243                       # number of hwrei instructions executed
system.cpu0.kern.ipl_count::0                   71062     36.64%     36.64% # number of times we switched to this ipl
system.cpu0.kern.ipl_count::21                    119      0.06%     36.70% # number of times we switched to this ipl
system.cpu0.kern.ipl_count::22                   4550      2.35%     39.05% # number of times we switched to this ipl
system.cpu0.kern.ipl_count::30                    747      0.39%     39.43% # number of times we switched to this ipl
system.cpu0.kern.ipl_count::31                 117459     60.57%    100.00% # number of times we switched to this ipl
system.cpu0.kern.ipl_count::total              193937                       # number of times we switched to this ipl
system.cpu0.kern.ipl_good::0                    70258     48.39%     48.39% # number of times we switched to this ipl from a different ipl
system.cpu0.kern.ipl_good::21                     119      0.08%     48.47% # number of times we switched to this ipl from a different ipl
system.cpu0.kern.ipl_good::22                    4550      3.13%     51.61% # number of times we switched to this ipl from a different ipl
system.cpu0.kern.ipl_good::30                     747      0.51%     52.12% # number of times we switched to this ipl from a different ipl
system.cpu0.kern.ipl_good::31                   69516     47.88%    100.00% # number of times we switched to this ipl from a different ipl
system.cpu0.kern.ipl_good::total               145190                       # number of times we switched to this ipl from a different ipl
system.cpu0.kern.ipl_ticks::0            3865839490000     80.79%     80.79% # number of cycles we spent at this ipl
system.cpu0.kern.ipl_ticks::21              615770000      0.01%     80.80% # number of cycles we spent at this ipl
system.cpu0.kern.ipl_ticks::22            15362450000      0.32%     81.12% # number of cycles we spent at this ipl
system.cpu0.kern.ipl_ticks::30             6243460000      0.13%     81.25% # number of cycles we spent at this ipl
system.cpu0.kern.ipl_ticks::31           897146340000     18.75%    100.00% # number of cycles we spent at this ipl
system.cpu0.kern.ipl_ticks::total        4785207510000                       # number of cycles we spent at this ipl
system.cpu0.kern.ipl_used::0                 0.988686                       # fraction of swpipl calls that actually changed the ipl
system.cpu0.kern.ipl_used::21                       1                       # fraction of swpipl calls that actually changed the ipl
system.cpu0.kern.ipl_used::22                       1                       # fraction of swpipl calls that actually changed the ipl
system.cpu0.kern.ipl_used::30                       1                       # fraction of swpipl calls that actually changed the ipl
system.cpu0.kern.ipl_used::31                0.591832                       # fraction of swpipl calls that actually changed the ipl
system.cpu0.kern.ipl_used::total             0.748645                       # fraction of swpipl calls that actually changed the ipl
system.cpu0.kern.syscall::2                         6      2.26%      2.26% # number of syscalls executed
system.cpu0.kern.syscall::3                        26      9.77%     12.03% # number of syscalls executed
system.cpu0.kern.syscall::4                         4      1.50%     13.53% # number of syscalls executed
system.cpu0.kern.syscall::6                        30     11.28%     24.81% # number of syscalls executed
system.cpu0.kern.syscall::12                        1      0.38%     25.19% # number of syscalls executed
system.cpu0.kern.syscall::15                        1      0.38%     25.56% # number of syscalls executed
system.cpu0.kern.syscall::17                       14      5.26%     30.83% # number of syscalls executed
system.cpu0.kern.syscall::19                        7      2.63%     33.46% # number of syscalls executed
system.cpu0.kern.syscall::20                        4      1.50%     34.96% # number of syscalls executed
system.cpu0.kern.syscall::23                        4      1.50%     36.47% # number of syscalls executed
system.cpu0.kern.syscall::24                        6      2.26%     38.72% # number of syscalls executed
system.cpu0.kern.syscall::33                       10      3.76%     42.48% # number of syscalls executed
system.cpu0.kern.syscall::45                       47     17.67%     60.15% # number of syscalls executed
system.cpu0.kern.syscall::47                        6      2.26%     62.41% # number of syscalls executed
system.cpu0.kern.syscall::48                        4      1.50%     63.91% # number of syscalls executed
system.cpu0.kern.syscall::54                        6      2.26%     66.17% # number of syscalls executed
system.cpu0.kern.syscall::58                        1      0.38%     66.54% # number of syscalls executed
system.cpu0.kern.syscall::59                        3      1.13%     67.67% # number of syscalls executed
system.cpu0.kern.syscall::71                       50     18.80%     86.47% # number of syscalls executed
system.cpu0.kern.syscall::73                        3      1.13%     87.59% # number of syscalls executed
system.cpu0.kern.syscall::74                       15      5.64%     93.23% # number of syscalls executed
system.cpu0.kern.syscall::87                        1      0.38%     93.61% # number of syscalls executed
system.cpu0.kern.syscall::90                        1      0.38%     93.98% # number of syscalls executed
system.cpu0.kern.syscall::92                        6      2.26%     96.24% # number of syscalls executed
system.cpu0.kern.syscall::97                        2      0.75%     96.99% # number of syscalls executed
system.cpu0.kern.syscall::98                        2      0.75%     97.74% # number of syscalls executed
system.cpu0.kern.syscall::132                       4      1.50%     99.25% # number of syscalls executed
system.cpu0.kern.syscall::144                       1      0.38%     99.62% # number of syscalls executed
system.cpu0.kern.syscall::147                       1      0.38%    100.00% # number of syscalls executed
system.cpu0.kern.syscall::total                   266                       # number of syscalls executed
system.cpu0.kern.callpal::cserve                    1      0.00%      0.00% # number of callpals executed
system.cpu0.kern.callpal::wripir                  836      0.41%      0.41% # number of callpals executed
system.cpu0.kern.callpal::wrmces                    1      0.00%      0.41% # number of callpals executed
system.cpu0.kern.callpal::wrfen                     1      0.00%      0.41% # number of callpals executed
system.cpu0.kern.callpal::wrvptptr                  1      0.00%      0.41% # number of callpals executed
system.cpu0.kern.callpal::swpctx                 3952      1.94%      2.35% # number of callpals executed
system.cpu0.kern.callpal::tbi                      34      0.02%      2.37% # number of callpals executed
system.cpu0.kern.callpal::wrent                     7      0.00%      2.37% # number of callpals executed
system.cpu0.kern.callpal::swpipl               181109     88.89%     91.26% # number of callpals executed
system.cpu0.kern.callpal::rdps                   9817      4.82%     96.08% # number of callpals executed
system.cpu0.kern.callpal::wrkgp                     1      0.00%     96.08% # number of callpals executed
system.cpu0.kern.callpal::wrusp                     6      0.00%     96.08% # number of callpals executed
system.cpu0.kern.callpal::rdusp                     8      0.00%     96.09% # number of callpals executed
system.cpu0.kern.callpal::whami                     2      0.00%     96.09% # number of callpals executed
system.cpu0.kern.callpal::rti                    7416      3.64%     99.73% # number of callpals executed
system.cpu0.kern.callpal::callsys                 392      0.19%     99.92% # number of callpals executed
system.cpu0.kern.callpal::imb                     166      0.08%    100.00% # number of callpals executed
system.cpu0.kern.callpal::total                203750                       # number of callpals executed
system.cpu0.kern.mode_switch::kernel            10598                       # number of protection mode switches
system.cpu0.kern.mode_switch::user               1294                       # number of protection mode switches
system.cpu0.kern.mode_switch::idle                  0                       # number of protection mode switches
system.cpu0.kern.mode_good::kernel               1294                      
system.cpu0.kern.mode_good::user                 1294                      
system.cpu0.kern.mode_good::idle                    0                      
system.cpu0.kern.mode_switch_good::kernel     0.122099                       # fraction of useful protection mode switches
system.cpu0.kern.mode_switch_good::user             1                       # fraction of useful protection mode switches
system.cpu0.kern.mode_switch_good::idle           nan                       # fraction of useful protection mode switches
system.cpu0.kern.mode_switch_good::total     0.217625                       # fraction of useful protection mode switches
system.cpu0.kern.mode_ticks::kernel      4700768170000     98.54%     98.54% # number of ticks spent at the given mode
system.cpu0.kern.mode_ticks::user         69472340000      1.46%    100.00% # number of ticks spent at the given mode
system.cpu0.kern.mode_ticks::idle                   0      0.00%    100.00% # number of ticks spent at the given mode
system.cpu0.kern.swap_context                    3953                       # number of times the context was actually changed
system.tsunami.ethernet.descDMAReads                0                       # Number of descriptors the device read w/ DMA
system.tsunami.ethernet.descDMAWrites               0                       # Number of descriptors the device wrote w/ DMA
system.tsunami.ethernet.descDmaReadBytes            0                       # number of descriptor bytes read w/ DMA
system.tsunami.ethernet.descDmaWriteBytes            0                       # number of descriptor bytes write w/ DMA
system.tsunami.ethernet.postedSwi                   0                       # number of software interrupts posted to CPU
system.tsunami.ethernet.coalescedSwi              nan                       # average number of Swi's coalesced into each post
system.tsunami.ethernet.totalSwi                    0                       # total number of Swi written to ISR
system.tsunami.ethernet.postedRxIdle                0                       # number of rxIdle interrupts posted to CPU
system.tsunami.ethernet.coalescedRxIdle           nan                       # average number of RxIdle's coalesced into each post
system.tsunami.ethernet.totalRxIdle                 0                       # total number of RxIdle written to ISR
system.tsunami.ethernet.postedRxOk                  0                       # number of RxOk interrupts posted to CPU
system.tsunami.ethernet.coalescedRxOk             nan                       # average number of RxOk's coalesced into each post
system.tsunami.ethernet.totalRxOk                   0                       # total number of RxOk written to ISR
system.tsunami.ethernet.postedRxDesc                0                       # number of RxDesc interrupts posted to CPU
system.tsunami.ethernet.coalescedRxDesc           nan                       # average number of RxDesc's coalesced into each post
system.tsunami.ethernet.totalRxDesc                 0                       # total number of RxDesc written to ISR
system.tsunami.ethernet.postedTxOk                  0                       # number of TxOk interrupts posted to CPU
system.tsunami.ethernet.coalescedTxOk             nan                       # average number of TxOk's coalesced into each post
system.tsunami.ethernet.totalTxOk                   0                       # total number of TxOk written to ISR
system.tsunami.ethernet.postedTxIdle                0                       # number of TxIdle interrupts posted to CPU
system.tsunami.ethernet.coalescedTxIdle           nan                       # average number of TxIdle's coalesced into each post
system.tsunami.ethernet.totalTxIdle                 0                       # total number of TxIdle written to ISR
system.tsunami.ethernet.postedTxDesc                0                       # number of TxDesc interrupts posted to CPU
system.tsunami.ethernet.coalescedTxDesc           nan                       # average number of TxDesc's coalesced into each post
[...]
system.cpu1.icache.overall_mshr_miss_rate::cpu1.inst     0.010184                       # mshr miss rate for overall accesses
system.cpu1.icache.overall_mshr_miss_rate::total     0.010184                       # mshr miss rate for overall accesses
system.cpu1.icache.ReadReq_avg_mshr_miss_latency::cpu1.inst 70981.345393                       # average ReadReq mshr miss latency
system.cpu1.icache.ReadReq_avg_mshr_miss_latency::total 70981.345393                       # average ReadReq mshr miss latency
system.cpu1.icache.demand_avg_mshr_miss_latency::cpu1.inst 70981.345393                       # average overall mshr miss latency
system.cpu1.icache.demand_avg_mshr_miss_latency::total 70981.345393                       # average overall mshr miss latency
system.cpu1.icache.overall_avg_mshr_miss_latency::cpu1.inst 70981.345393                       # average overall mshr miss latency
system.cpu1.icache.overall_avg_mshr_miss_latency::total 70981.345393                       # average overall mshr miss latency
system.cpu1.icache.no_allocate_misses               0                       # Number of misses that were no-allocate
system.cpu1.dcache.tags.replacements             1736                       # number of replacements
system.cpu1.dcache.tags.tagsinuse          912.040058                       # Cycle average of tags in use
system.cpu1.dcache.tags.total_refs             137593                       # Total number of references to valid blocks.
system.cpu1.dcache.tags.sampled_refs             2610                       # Sample count of references to valid blocks.
system.cpu1.dcache.tags.avg_refs            52.717625                       # Average number of references to valid blocks.
system.cpu1.dcache.tags.warmup_cycle                0                       # Cycle when the warmup percentage was hit.
system.cpu1.dcache.tags.occ_blocks::cpu1.data   912.040058                       # Average occupied blocks per requestor
system.cpu1.dcache.tags.occ_percent::cpu1.data     0.890664                       # Average percentage of cache occupancy
system.cpu1.dcache.tags.occ_percent::total     0.890664                       # Average percentage of cache occupancy
system.cpu1.dcache.tags.occ_task_id_blocks::1024          874                       # Occupied blocks per task id
system.cpu1.dcache.tags.age_task_id_blocks_1024::3            5                       # Occupied blocks per task id
system.cpu1.dcache.tags.age_task_id_blocks_1024::4          869                       # Occupied blocks per task id
system.cpu1.dcache.tags.occ_task_id_percent::1024     0.853516                       # Percentage of cache occupancy per task id
system.cpu1.dcache.tags.tag_accesses           107170                       # Number of tag accesses
system.cpu1.dcache.tags.data_accesses          107170                       # Number of data accesses
system.cpu1.dcache.ReadReq_hits::cpu1.data        31234                       # number of ReadReq hits
system.cpu1.dcache.ReadReq_hits::total          31234                       # number of ReadReq hits
system.cpu1.dcache.WriteReq_hits::cpu1.data        17998                       # number of WriteReq hits
system.cpu1.dcache.WriteReq_hits::total         17998                       # number of WriteReq hits
system.cpu1.dcache.LoadLockedReq_hits::cpu1.data          539                       # number of LoadLockedReq hits
system.cpu1.dcache.LoadLockedReq_hits::total          539                       # number of LoadLockedReq hits
system.cpu1.dcache.StoreCondReq_hits::cpu1.data          550                       # number of StoreCondReq hits
system.cpu1.dcache.StoreCondReq_hits::total          550                       # number of StoreCondReq hits
system.cpu1.dcache.demand_hits::cpu1.data        49232                       # number of demand (read+write) hits
system.cpu1.dcache.demand_hits::total           49232                       # number of demand (read+write) hits
system.cpu1.dcache.overall_hits::cpu1.data        49232                       # number of overall hits
system.cpu1.dcache.overall_hits::total          49232                       # number of overall hits
system.cpu1.dcache.ReadReq_misses::cpu1.data         1407                       # number of ReadReq misses
system.cpu1.dcache.ReadReq_misses::total         1407                       # number of ReadReq misses
system.cpu1.dcache.WriteReq_misses::cpu1.data          763                       # number of WriteReq misses
system.cpu1.dcache.WriteReq_misses::total          763                       # number of WriteReq misses
system.cpu1.dcache.LoadLockedReq_misses::cpu1.data           36                       # number of LoadLockedReq misses
system.cpu1.dcache.LoadLockedReq_misses::total           36                       # number of LoadLockedReq misses
system.cpu1.dcache.StoreCondReq_misses::cpu1.data           25                       # number of StoreCondReq misses
system.cpu1.dcache.StoreCondReq_misses::total           25                       # number of StoreCondReq misses
system.cpu1.dcache.demand_misses::cpu1.data         2170                       # number of demand (read+write) misses
system.cpu1.dcache.demand_misses::total          2170                       # number of demand (read+write) misses
system.cpu1.dcache.overall_misses::cpu1.data         2170                       # number of overall misses
system.cpu1.dcache.overall_misses::total         2170                       # number of overall misses
system.cpu1.dcache.ReadReq_miss_latency::cpu1.data    133324750                       # number of ReadReq miss cycles
system.cpu1.dcache.ReadReq_miss_latency::total    133324750                       # number of ReadReq miss cycles
system.cpu1.dcache.WriteReq_miss_latency::cpu1.data     63112132                       # number of WriteReq miss cycles
system.cpu1.dcache.WriteReq_miss_latency::total     63112132                       # number of WriteReq miss cycles
system.cpu1.dcache.LoadLockedReq_miss_latency::cpu1.data      3103250                       # number of LoadLockedReq miss cycles
system.cpu1.dcache.LoadLockedReq_miss_latency::total      3103250                       # number of LoadLockedReq miss cycles
system.cpu1.dcache.StoreCondReq_miss_latency::cpu1.data      1531998                       # number of StoreCondReq miss cycles
system.cpu1.dcache.StoreCondReq_miss_latency::total      1531998                       # number of StoreCondReq miss cycles
system.cpu1.dcache.demand_miss_latency::cpu1.data    196436882                       # number of demand (read+write) miss cycles
system.cpu1.dcache.demand_miss_latency::total    196436882                       # number of demand (read+write) miss cycles
system.cpu1.dcache.overall_miss_latency::cpu1.data    196436882                       # number of overall miss cycles
system.cpu1.dcache.overall_miss_latency::total    196436882                       # number of overall miss cycles
system.cpu1.dcache.ReadReq_accesses::cpu1.data        32641                       # number of ReadReq accesses(hits+misses)
system.cpu1.dcache.ReadReq_accesses::total        32641                       # number of ReadReq accesses(hits+misses)
system.cpu1.dcache.WriteReq_accesses::cpu1.data        18761                       # number of WriteReq accesses(hits+misses)
system.cpu1.dcache.WriteReq_accesses::total        18761                       # number of WriteReq accesses(hits+misses)
system.cpu1.dcache.LoadLockedReq_accesses::cpu1.data          575                       # number of LoadLockedReq accesses(hits+misses)
system.cpu1.dcache.LoadLockedReq_accesses::total          575                       # number of LoadLockedReq accesses(hits+misses)
system.cpu1.dcache.StoreCondReq_accesses::cpu1.data          575                       # number of StoreCondReq accesses(hits+misses)
system.cpu1.dcache.StoreCondReq_accesses::total          575                       # number of StoreCondReq accesses(hits+misses)
system.cpu1.dcache.demand_accesses::cpu1.data        51402                       # number of demand (read+write) accesses
system.cpu1.dcache.demand_accesses::total        51402                       # number of demand (read+write) accesses
system.cpu1.dcache.overall_accesses::cpu1.data        51402                       # number of overall (read+write) accesses
system.cpu1.dcache.overall_accesses::total        51402                       # number of overall (read+write) accesses
system.cpu1.dcache.ReadReq_miss_rate::cpu1.data     0.043105                       # miss rate for ReadReq accesses
system.cpu1.dcache.ReadReq_miss_rate::total     0.043105                       # miss rate for ReadReq accesses
system.cpu1.dcache.WriteReq_miss_rate::cpu1.data     0.040669                       # miss rate for WriteReq accesses
system.cpu1.dcache.WriteReq_miss_rate::total     0.040669                       # miss rate for WriteReq accesses
system.cpu1.dcache.LoadLockedReq_miss_rate::cpu1.data     0.062609                       # miss rate for LoadLockedReq accesses
system.cpu1.dcache.LoadLockedReq_miss_rate::total     0.062609                       # miss rate for LoadLockedReq accesses
system.cpu1.dcache.StoreCondReq_miss_rate::cpu1.data     0.043478                       # miss rate for StoreCondReq accesses
system.cpu1.dcache.StoreCondReq_miss_rate::total     0.043478                       # miss rate for StoreCondReq accesses
system.cpu1.dcache.demand_miss_rate::cpu1.data     0.042216                       # miss rate for demand accesses
system.cpu1.dcache.demand_miss_rate::total     0.042216                       # miss rate for demand accesses
system.cpu1.dcache.overall_miss_rate::cpu1.data     0.042216                       # miss rate for overall accesses
system.cpu1.dcache.overall_miss_rate::total     0.042216                       # miss rate for overall accesses
system.cpu1.dcache.ReadReq_avg_miss_latency::cpu1.data 94758.173419                       # average ReadReq miss latency
system.cpu1.dcache.ReadReq_avg_miss_latency::total 94758.173419                       # average ReadReq miss latency
system.cpu1.dcache.WriteReq_avg_miss_latency::cpu1.data 82715.769332                       # average WriteReq miss latency
system.cpu1.dcache.WriteReq_avg_miss_latency::total 82715.769332                       # average WriteReq miss latency
system.cpu1.dcache.LoadLockedReq_avg_miss_latency::cpu1.data 86201.388889                       # average LoadLockedReq miss latency
system.cpu1.dcache.LoadLockedReq_avg_miss_latency::total 86201.388889                       # average LoadLockedReq miss latency
system.cpu1.dcache.StoreCondReq_avg_miss_latency::cpu1.data 61279.920000                       # average StoreCondReq miss latency
system.cpu1.dcache.StoreCondReq_avg_miss_latency::total 61279.920000                       # average StoreCondReq miss latency
system.cpu1.dcache.demand_avg_miss_latency::cpu1.data 90523.908756                       # average overall miss latency
system.cpu1.dcache.demand_avg_miss_latency::total 90523.908756                       # average overall miss latency
system.cpu1.dcache.overall_avg_miss_latency::cpu1.data 90523.908756                       # average overall miss latency
system.cpu1.dcache.overall_avg_miss_latency::total 90523.908756                       # average overall miss latency
system.cpu1.dcache.blocked_cycles::no_mshrs            0                       # number of cycles access was blocked
system.cpu1.dcache.blocked_cycles::no_targets            0                       # number of cycles access was blocked
system.cpu1.dcache.blocked::no_mshrs                0                       # number of cycles access was blocked
system.cpu1.dcache.blocked::no_targets              0                       # number of cycles access was blocked
system.cpu1.dcache.avg_blocked_cycles::no_mshrs          nan                       # average number of cycles each access was blocked
system.cpu1.dcache.avg_blocked_cycles::no_targets          nan                       # average number of cycles each access was blocked
system.cpu1.dcache.fast_writes                      0                       # number of fast writes performed
system.cpu1.dcache.cache_copies                     0                       # number of cache copies performed
system.cpu1.dcache.writebacks::writebacks          683                       # number of writebacks
system.cpu1.dcache.writebacks::total              683                       # number of writebacks
system.cpu1.dcache.ReadReq_mshr_misses::cpu1.data         1407                       # number of ReadReq MSHR misses
system.cpu1.dcache.ReadReq_mshr_misses::total         1407                       # number of ReadReq MSHR misses
system.cpu1.dcache.WriteReq_mshr_misses::cpu1.data          763                       # number of WriteReq MSHR misses
system.cpu1.dcache.WriteReq_mshr_misses::total          763                       # number of WriteReq MSHR misses
system.cpu1.dcache.LoadLockedReq_mshr_misses::cpu1.data           36                       # number of LoadLockedReq MSHR misses
system.cpu1.dcache.LoadLockedReq_mshr_misses::total           36                       # number of LoadLockedReq MSHR misses
system.cpu1.dcache.StoreCondReq_mshr_misses::cpu1.data           25                       # number of StoreCondReq MSHR misses
system.cpu1.dcache.StoreCondReq_mshr_misses::total           25                       # number of StoreCondReq MSHR misses
system.cpu1.dcache.demand_mshr_misses::cpu1.data         2170                       # number of demand (read+write) MSHR misses
system.cpu1.dcache.demand_mshr_misses::total         2170                       # number of demand (read+write) MSHR misses
system.cpu1.dcache.overall_mshr_misses::cpu1.data         2170                       # number of overall MSHR misses
system.cpu1.dcache.overall_mshr_misses::total         2170                       # number of overall MSHR misses
system.cpu1.dcache.ReadReq_mshr_miss_latency::cpu1.data     96751250                       # number of ReadReq MSHR miss cycles
system.cpu1.dcache.ReadReq_mshr_miss_latency::total     96751250                       # number of ReadReq MSHR miss cycles
system.cpu1.dcache.WriteReq_mshr_miss_latency::cpu1.data     43230868                       # number of WriteReq MSHR miss cycles
system.cpu1.dcache.WriteReq_mshr_miss_latency::total     43230868                       # number of WriteReq MSHR miss cycles
system.cpu1.dcache.LoadLockedReq_mshr_miss_latency::cpu1.data      2188750                       # number of LoadLockedReq MSHR miss cycles
system.cpu1.dcache.LoadLockedReq_mshr_miss_latency::total      2188750                       # number of LoadLockedReq MSHR miss cycles
system.cpu1.dcache.StoreCondReq_mshr_miss_latency::cpu1.data       960002                       # number of StoreCondReq MSHR miss cycles
system.cpu1.dcache.StoreCondReq_mshr_miss_latency::total       960002                       # number of StoreCondReq MSHR miss cycles
system.cpu1.dcache.demand_mshr_miss_latency::cpu1.data    139982118                       # number of demand (read+write) MSHR miss cycles
system.cpu1.dcache.demand_mshr_miss_latency::total    139982118                       # number of demand (read+write) MSHR miss cycles
system.cpu1.dcache.overall_mshr_miss_latency::cpu1.data    139982118                       # number of overall MSHR miss cycles
system.cpu1.dcache.overall_mshr_miss_latency::total    139982118                       # number of overall MSHR miss cycles
system.cpu1.dcache.WriteReq_mshr_uncacheable_latency::cpu1.data      5940000                       # number of WriteReq MSHR uncacheable cycles
system.cpu1.dcache.WriteReq_mshr_uncacheable_latency::total      5940000                       # number of WriteReq MSHR uncacheable cycles
system.cpu1.dcache.overall_mshr_uncacheable_latency::cpu1.data      5940000                       # number of overall MSHR uncacheable cycles
system.cpu1.dcache.overall_mshr_uncacheable_latency::total      5940000                       # number of overall MSHR uncacheable cycles
system.cpu1.dcache.ReadReq_mshr_miss_rate::cpu1.data     0.043105                       # mshr miss rate for ReadReq accesses
system.cpu1.dcache.ReadReq_mshr_miss_rate::total     0.043105                       # mshr miss rate for ReadReq accesses
system.cpu1.dcache.WriteReq_mshr_miss_rate::cpu1.data     0.040669                       # mshr miss rate for WriteReq accesses
system.cpu1.dcache.WriteReq_mshr_miss_rate::total     0.040669                       # mshr miss rate for WriteReq accesses
system.cpu1.dcache.LoadLockedReq_mshr_miss_rate::cpu1.data     0.062609                       # mshr miss rate for LoadLockedReq accesses
system.cpu1.dcache.LoadLockedReq_mshr_miss_rate::total     0.062609                       # mshr miss rate for LoadLockedReq accesses
system.cpu1.dcache.StoreCondReq_mshr_miss_rate::cpu1.data     0.043478                       # mshr miss rate for StoreCondReq accesses
system.cpu1.dcache.StoreCondReq_mshr_miss_rate::total     0.043478                       # mshr miss rate for StoreCondReq accesses
system.cpu1.dcache.demand_mshr_miss_rate::cpu1.data     0.042216                       # mshr miss rate for demand accesses
system.cpu1.dcache.demand_mshr_miss_rate::total     0.042216                       # mshr miss rate for demand accesses
system.cpu1.dcache.overall_mshr_miss_rate::cpu1.data     0.042216                       # mshr miss rate for overall accesses
system.cpu1.dcache.overall_mshr_miss_rate::total     0.042216                       # mshr miss rate for overall accesses
system.cpu1.dcache.ReadReq_avg_mshr_miss_latency::cpu1.data 68764.214641                       # average ReadReq mshr miss latency
system.cpu1.dcache.ReadReq_avg_mshr_miss_latency::total 68764.214641                       # average ReadReq mshr miss latency
system.cpu1.dcache.WriteReq_avg_mshr_miss_latency::cpu1.data 56659.066841                       # average WriteReq mshr miss latency
system.cpu1.dcache.WriteReq_avg_mshr_miss_latency::total 56659.066841                       # average WriteReq mshr miss latency
system.cpu1.dcache.LoadLockedReq_avg_mshr_miss_latency::cpu1.data 60798.611111                       # average LoadLockedReq mshr miss latency
system.cpu1.dcache.LoadLockedReq_avg_mshr_miss_latency::total 60798.611111                       # average LoadLockedReq mshr miss latency
system.cpu1.dcache.StoreCondReq_avg_mshr_miss_latency::cpu1.data 38400.080000                       # average StoreCondReq mshr miss latency
system.cpu1.dcache.StoreCondReq_avg_mshr_miss_latency::total 38400.080000                       # average StoreCondReq mshr miss latency
system.cpu1.dcache.demand_avg_mshr_miss_latency::cpu1.data 64507.888479                       # average overall mshr miss latency
system.cpu1.dcache.demand_avg_mshr_miss_latency::total 64507.888479                       # average overall mshr miss latency
system.cpu1.dcache.overall_avg_mshr_miss_latency::cpu1.data 64507.888479                       # average overall mshr miss latency
system.cpu1.dcache.overall_avg_mshr_miss_latency::total 64507.888479                       # average overall mshr miss latency
system.cpu1.dcache.WriteReq_avg_mshr_uncacheable_latency::cpu1.data          inf                       # average WriteReq mshr uncacheable latency
system.cpu1.dcache.WriteReq_avg_mshr_uncacheable_latency::total          inf                       # average WriteReq mshr uncacheable latency
system.cpu1.dcache.overall_avg_mshr_uncacheable_latency::cpu1.data          inf                       # average overall mshr uncacheable latency
system.cpu1.dcache.overall_avg_mshr_uncacheable_latency::total          inf                       # average overall mshr uncacheable latency
system.cpu1.dcache.no_allocate_misses               0                       # Number of misses that were no-allocate

---------- End Simulation Statistics   ----------
