
---------- Begin Simulation Statistics ----------
sim_seconds                                  2.761329                       # Number of seconds simulated
sim_ticks                                2761329319450                       # Number of ticks simulated
final_tick                               2761329319450                       # Number of ticks from beginning of simulation (restored from checkpoints and never reset)
sim_freq                                 1000000000000                       # Frequency of simulated ticks
host_inst_rate                                 242657                       # Simulator instruction rate (inst/s)
host_op_rate                                   242657                       # Simulator op (including micro ops) rate (op/s)
host_tick_rate                             7378298919                       # Simulator tick rate (ticks/s)
host_mem_usage                                 457456                       # Number of bytes of host memory used
host_seconds                                   374.25                       # Real time elapsed on the host
sim_insts                                    90814524                       # Number of instructions simulated
sim_ops                                      90814524                       # Number of ops (including micro ops) simulated
system.voltage_domain.voltage                       1                       # Voltage in Volts
system.clk_domain.clock                          1000                       # Clock period in ticks
system.mem_ctrls.bytes_read::cpu.inst        94853376                       # Number of bytes read from this memory
system.mem_ctrls.bytes_read::cpu.data       183457856                       # Number of bytes read from this memory
system.mem_ctrls.bytes_read::tsunami.ide         4928                       # Number of bytes read from this memory
system.mem_ctrls.bytes_read::total          278316160                       # Number of bytes read from this memory
system.mem_ctrls.bytes_inst_read::cpu.inst     94853376                       # Number of instructions bytes read from this memory
system.mem_ctrls.bytes_inst_read::total      94853376                       # Number of instructions bytes read from this memory
system.mem_ctrls.bytes_written::writebacks     31484608                       # Number of bytes written to this memory
system.mem_ctrls.bytes_written::tsunami.ide      2832384                       # Number of bytes written to this memory
system.mem_ctrls.bytes_written::total        34316992                       # Number of bytes written to this memory
system.mem_ctrls.num_reads::cpu.inst          1482084                       # Number of read requests responded to by this memory
system.mem_ctrls.num_reads::cpu.data          2866529                       # Number of read requests responded to by this memory
system.mem_ctrls.num_reads::tsunami.ide            77                       # Number of read requests responded to by this memory
system.mem_ctrls.num_reads::total             4348690                       # Number of read requests responded to by this memory
system.mem_ctrls.num_writes::writebacks        491947                       # Number of write requests responded to by this memory
system.mem_ctrls.num_writes::tsunami.ide        44256                       # Number of write requests responded to by this memory
system.mem_ctrls.num_writes::total             536203                       # Number of write requests responded to by this memory
system.mem_ctrls.bw_read::cpu.inst           34350621                       # Total read bandwidth from this memory (bytes/s)
system.mem_ctrls.bw_read::cpu.data           66438239                       # Total read bandwidth from this memory (bytes/s)
system.mem_ctrls.bw_read::tsunami.ide            1785                       # Total read bandwidth from this memory (bytes/s)
system.mem_ctrls.bw_read::total             100790644                       # Total read bandwidth from this memory (bytes/s)
system.mem_ctrls.bw_inst_read::cpu.inst      34350621                       # Instruction read bandwidth from this memory (bytes/s)
system.mem_ctrls.bw_inst_read::total         34350621                       # Instruction read bandwidth from this memory (bytes/s)
system.mem_ctrls.bw_write::writebacks        11401975                       # Write bandwidth from this memory (bytes/s)
system.mem_ctrls.bw_write::tsunami.ide        1025732                       # Write bandwidth from this memory (bytes/s)
system.mem_ctrls.bw_write::total             12427707                       # Write bandwidth from this memory (bytes/s)
system.mem_ctrls.bw_total::writebacks        11401975                       # Total bandwidth to/from this memory (bytes/s)
system.mem_ctrls.bw_total::cpu.inst          34350621                       # Total bandwidth to/from this memory (bytes/s)
system.mem_ctrls.bw_total::cpu.data          66438239                       # Total bandwidth to/from this memory (bytes/s)
system.mem_ctrls.bw_total::tsunami.ide        1027517                       # Total bandwidth to/from this memory (bytes/s)
system.mem_ctrls.bw_total::total            113218351                       # Total bandwidth to/from this memory (bytes/s)
system.mem_ctrls.readReqs                     4348690                       # Number of read requests accepted
system.mem_ctrls.writeReqs                     536203                       # Number of write requests accepted
system.mem_ctrls.readBursts                   4348690                       # Number of DRAM read bursts, including those serviced by the write queue
system.mem_ctrls.writeBursts                   536203                       # Number of DRAM write bursts, including those merged in the write queue
system.mem_ctrls.bytesReadDRAM              276017792                       # Total number of bytes read from DRAM
system.mem_ctrls.bytesReadWrQ                 2298368                       # Total number of bytes read from write queue
system.mem_ctrls.bytesWritten                33995904                       # Total number of bytes written to DRAM
system.mem_ctrls.bytesReadSys               278316160                       # Total read bytes from the system interface side
system.mem_ctrls.bytesWrittenSys             34316992                       # Total written bytes from the system interface side
system.mem_ctrls.servicedByWrQ                  35912                       # Number of DRAM read bursts serviced by the write queue
system.mem_ctrls.mergedWrBursts                  4998                       # Number of DRAM write bursts merged with an existing one
system.mem_ctrls.neitherReadNorWriteReqs          773                       # Number of requests that are neither read nor write
system.mem_ctrls.perBankRdBursts::0            312772                       # Per bank write bursts
system.mem_ctrls.perBankRdBursts::1            312680                       # Per bank write bursts
system.mem_ctrls.perBankRdBursts::2            249406                       # Per bank write bursts
system.mem_ctrls.perBankRdBursts::3            171528                       # Per bank write bursts
system.mem_ctrls.perBankRdBursts::4            226911                       # Per bank write bursts
system.mem_ctrls.perBankRdBursts::5            199751                       # Per bank write bursts
system.mem_ctrls.perBankRdBursts::6            241791                       # Per bank write bursts
system.mem_ctrls.perBankRdBursts::7            224006                       # Per bank write bursts
system.mem_ctrls.perBankRdBursts::8            275293                       # Per bank write bursts
system.mem_ctrls.perBankRdBursts::9            288656                       # Per bank write bursts
system.mem_ctrls.perBankRdBursts::10           266382                       # Per bank write bursts
system.mem_ctrls.perBankRdBursts::11           363038                       # Per bank write bursts
system.mem_ctrls.perBankRdBursts::12           331258                       # Per bank write bursts
system.mem_ctrls.perBankRdBursts::13           302261                       # Per bank write bursts
system.mem_ctrls.perBankRdBursts::14           327899                       # Per bank write bursts
system.mem_ctrls.perBankRdBursts::15           219146                       # Per bank write bursts
system.mem_ctrls.perBankWrBursts::0             60099                       # Per bank write bursts
system.mem_ctrls.perBankWrBursts::1             35360                       # Per bank write bursts
system.mem_ctrls.perBankWrBursts::2             24364                       # Per bank write bursts
system.mem_ctrls.perBankWrBursts::3             29158                       # Per bank write bursts
system.mem_ctrls.perBankWrBursts::4             18940                       # Per bank write bursts
system.mem_ctrls.perBankWrBursts::5             17617                       # Per bank write bursts
system.mem_ctrls.perBankWrBursts::6             20496                       # Per bank write bursts
system.mem_ctrls.perBankWrBursts::7             29764                       # Per bank write bursts
system.mem_ctrls.perBankWrBursts::8             30821                       # Per bank write bursts
system.mem_ctrls.perBankWrBursts::9             31869                       # Per bank write bursts
system.mem_ctrls.perBankWrBursts::10            27487                       # Per bank write bursts
system.mem_ctrls.perBankWrBursts::11            54677                       # Per bank write bursts
system.mem_ctrls.perBankWrBursts::12            56645                       # Per bank write bursts
system.mem_ctrls.perBankWrBursts::13            41686                       # Per bank write bursts
system.mem_ctrls.perBankWrBursts::14            23341                       # Per bank write bursts
system.mem_ctrls.perBankWrBursts::15            28862                       # Per bank write bursts
system.mem_ctrls.numRdRetry                         0                       # Number of times read queue was full causing retry
system.mem_ctrls.numWrRetry                        17                       # Number of times write queue was full causing retry
system.mem_ctrls.totGap                  2761329212100                       # Total gap between requests
system.mem_ctrls.readPktSize::0                     0                       # Read request sizes (log2)
system.mem_ctrls.readPktSize::1                     0                       # Read request sizes (log2)
system.mem_ctrls.readPktSize::2                     0                       # Read request sizes (log2)
system.mem_ctrls.readPktSize::3                     0                       # Read request sizes (log2)
system.mem_ctrls.readPktSize::4                     0                       # Read request sizes (log2)
system.mem_ctrls.readPktSize::5                     0                       # Read request sizes (log2)
system.mem_ctrls.readPktSize::6               4348690                       # Read request sizes (log2)
system.mem_ctrls.writePktSize::0                    0                       # Write request sizes (log2)
system.mem_ctrls.writePktSize::1                    0                       # Write request sizes (log2)
system.mem_ctrls.writePktSize::2                    0                       # Write request sizes (log2)
system.mem_ctrls.writePktSize::3                    0                       # Write request sizes (log2)
system.mem_ctrls.writePktSize::4                    0                       # Write request sizes (log2)
system.mem_ctrls.writePktSize::5                    0                       # Write request sizes (log2)
system.mem_ctrls.writePktSize::6               536203                       # Write request sizes (log2)
system.mem_ctrls.rdQLenPdf::0                 3692824                       # What read queue length does an incoming req see
system.mem_ctrls.rdQLenPdf::1                  535468                       # What read queue length does an incoming req see
system.mem_ctrls.rdQLenPdf::2                   73574                       # What read queue length does an incoming req see
system.mem_ctrls.rdQLenPdf::3                   10209                       # What read queue length does an incoming req see
system.mem_ctrls.rdQLenPdf::4                     670                       # What read queue length does an incoming req see
system.mem_ctrls.rdQLenPdf::5                       8                       # What read queue length does an incoming req see
system.mem_ctrls.rdQLenPdf::6                       4                       # What read queue length does an incoming req see
system.mem_ctrls.rdQLenPdf::7                       4                       # What read queue length does an incoming req see
system.mem_ctrls.rdQLenPdf::8                       3                       # What read queue length does an incoming req see
system.mem_ctrls.rdQLenPdf::9                       3                       # What read queue length does an incoming req see
system.mem_ctrls.rdQLenPdf::10                      1                       # What read queue length does an incoming req see
system.mem_ctrls.rdQLenPdf::11                      1                       # What read queue length does an incoming req see
system.mem_ctrls.rdQLenPdf::12                      2                       # What read queue length does an incoming req see
system.mem_ctrls.rdQLenPdf::13                      1                       # What read queue length does an incoming req see
system.mem_ctrls.rdQLenPdf::14                      1                       # What read queue length does an incoming req see
system.mem_ctrls.rdQLenPdf::15                      1                       # What read queue length does an incoming req see
system.mem_ctrls.rdQLenPdf::16                      1                       # What read queue length does an incoming req see
system.mem_ctrls.rdQLenPdf::17                      2                       # What read queue length does an incoming req see
system.mem_ctrls.rdQLenPdf::18                      1                       # What read queue length does an incoming req see
system.mem_ctrls.rdQLenPdf::19                      0                       # What read queue length does an incoming req see
system.mem_ctrls.rdQLenPdf::20                      0                       # What read queue length does an incoming req see
system.mem_ctrls.rdQLenPdf::21                      0                       # What read queue length does an incoming req see
system.mem_ctrls.rdQLenPdf::22                      0                       # What read queue length does an incoming req see
system.mem_ctrls.rdQLenPdf::23                      0                       # What read queue length does an incoming req see
system.mem_ctrls.rdQLenPdf::24                      0                       # What read queue length does an incoming req see
system.mem_ctrls.rdQLenPdf::25                      0                       # What read queue length does an incoming req see
system.mem_ctrls.rdQLenPdf::26                      0                       # What read queue length does an incoming req see
system.mem_ctrls.rdQLenPdf::27                      0                       # What read queue length does an incoming req see
system.mem_ctrls.rdQLenPdf::28                      0                       # What read queue length does an incoming req see
system.mem_ctrls.rdQLenPdf::29                      0                       # What read queue length does an incoming req see
system.mem_ctrls.rdQLenPdf::30                      0                       # What read queue length does an incoming req see
system.mem_ctrls.rdQLenPdf::31                      0                       # What read queue length does an incoming req see
system.mem_ctrls.wrQLenPdf::0                       1                       # What write queue length does an incoming req see
system.mem_ctrls.wrQLenPdf::1                       1                       # What write queue length does an incoming req see
system.mem_ctrls.wrQLenPdf::2                       1                       # What write queue length does an incoming req see
system.mem_ctrls.wrQLenPdf::3                       1                       # What write queue length does an incoming req see
system.mem_ctrls.wrQLenPdf::4                       1                       # What write queue length does an incoming req see
system.mem_ctrls.wrQLenPdf::5                       1                       # What write queue length does an incoming req see
system.mem_ctrls.wrQLenPdf::6                       1                       # What write queue length does an incoming req see
system.mem_ctrls.wrQLenPdf::7                       1                       # What write queue length does an incoming req see
system.mem_ctrls.wrQLenPdf::8                       1                       # What write queue length does an incoming req see
system.mem_ctrls.wrQLenPdf::9                       1                       # What write queue length does an incoming req see
system.mem_ctrls.wrQLenPdf::10                      1                       # What write queue length does an incoming req see
system.mem_ctrls.wrQLenPdf::11                      1                       # What write queue length does an incoming req see
system.mem_ctrls.wrQLenPdf::12                      1                       # What write queue length does an incoming req see
system.mem_ctrls.wrQLenPdf::13                      1                       # What write queue length does an incoming req see
system.mem_ctrls.wrQLenPdf::14                      1                       # What write queue length does an incoming req see
system.mem_ctrls.wrQLenPdf::15                   7901                       # What write queue length does an incoming req see
system.mem_ctrls.wrQLenPdf::16                   8617                       # What write queue length does an incoming req see
system.mem_ctrls.wrQLenPdf::17                  22240                       # What write queue length does an incoming req see
system.mem_ctrls.wrQLenPdf::18                  29578                       # What write queue length does an incoming req see
system.mem_ctrls.wrQLenPdf::19                  30588                       # What write queue length does an incoming req see
system.mem_ctrls.wrQLenPdf::20                  31017                       # What write queue length does an incoming req see
system.mem_ctrls.wrQLenPdf::21                  32032                       # What write queue length does an incoming req see
system.mem_ctrls.wrQLenPdf::22                  31709                       # What write queue length does an incoming req see
system.mem_ctrls.wrQLenPdf::23                  32804                       # What write queue length does an incoming req see
system.mem_ctrls.wrQLenPdf::24                  33008                       # What write queue length does an incoming req see
system.mem_ctrls.wrQLenPdf::25                  33042                       # What write queue length does an incoming req see
system.mem_ctrls.wrQLenPdf::26                  32705                       # What write queue length does an incoming req see
system.mem_ctrls.wrQLenPdf::27                  32749                       # What write queue length does an incoming req see
system.mem_ctrls.wrQLenPdf::28                  33312                       # What write queue length does an incoming req see
system.mem_ctrls.wrQLenPdf::29                  32564                       # What write queue length does an incoming req see
system.mem_ctrls.wrQLenPdf::30                  32556                       # What write queue length does an incoming req see
system.mem_ctrls.wrQLenPdf::31                  32421                       # What write queue length does an incoming req see
system.mem_ctrls.wrQLenPdf::32                  32311                       # What write queue length does an incoming req see
system.mem_ctrls.wrQLenPdf::33                   1253                       # What write queue length does an incoming req see
system.mem_ctrls.wrQLenPdf::34                    968                       # What write queue length does an incoming req see
system.mem_ctrls.wrQLenPdf::35                    849                       # What write queue length does an incoming req see
system.mem_ctrls.wrQLenPdf::36                    720                       # What write queue length does an incoming req see
system.mem_ctrls.wrQLenPdf::37                    545                       # What write queue length does an incoming req see
system.mem_ctrls.wrQLenPdf::38                    457                       # What write queue length does an incoming req see
system.mem_ctrls.wrQLenPdf::39                    388                       # What write queue length does an incoming req see
system.mem_ctrls.wrQLenPdf::40                    334                       # What write queue length does an incoming req see
system.mem_ctrls.wrQLenPdf::41                    296                       # What write queue length does an incoming req see
system.mem_ctrls.wrQLenPdf::42                    292                       # What write queue length does an incoming req see
system.mem_ctrls.wrQLenPdf::43                    268                       # What write queue length does an incoming req see
system.mem_ctrls.wrQLenPdf::44                    266                       # What write queue length does an incoming req see
system.mem_ctrls.wrQLenPdf::45                    239                       # What write queue length does an incoming req see
system.mem_ctrls.wrQLenPdf::46                    246                       # What write queue length does an incoming req see
system.mem_ctrls.wrQLenPdf::47                    238                       # What write queue length does an incoming req see
system.mem_ctrls.wrQLenPdf::48                    238                       # What write queue length does an incoming req see
system.mem_ctrls.wrQLenPdf::49                    233                       # What write queue length does an incoming req see
system.mem_ctrls.wrQLenPdf::50                    230                       # What write queue length does an incoming req see
system.mem_ctrls.wrQLenPdf::51                    238                       # What write queue length does an incoming req see
system.mem_ctrls.wrQLenPdf::52                    228                       # What write queue length does an incoming req see
system.mem_ctrls.wrQLenPdf::53                    224                       # What write queue length does an incoming req see
system.mem_ctrls.wrQLenPdf::54                    211                       # What write queue length does an incoming req see
system.mem_ctrls.wrQLenPdf::55                    176                       # What write queue length does an incoming req see
system.mem_ctrls.wrQLenPdf::56                    169                       # What write queue length does an incoming req see
system.mem_ctrls.wrQLenPdf::57                    164                       # What write queue length does an incoming req see
system.mem_ctrls.wrQLenPdf::58                    143                       # What write queue length does an incoming req see
system.mem_ctrls.wrQLenPdf::59                    134                       # What write queue length does an incoming req see
system.mem_ctrls.wrQLenPdf::60                    108                       # What write queue length does an incoming req see
system.mem_ctrls.wrQLenPdf::61                     77                       # What write queue length does an incoming req see
system.mem_ctrls.wrQLenPdf::62                     53                       # What write queue length does an incoming req see
system.mem_ctrls.wrQLenPdf::63                     51                       # What write queue length does an incoming req see
system.mem_ctrls.bytesPerActivate::samples      1155678                       # Bytes accessed per row activation
system.mem_ctrls.bytesPerActivate::mean    268.252105                       # Bytes accessed per row activation
system.mem_ctrls.bytesPerActivate::gmean   158.174971                       # Bytes accessed per row activation
system.mem_ctrls.bytesPerActivate::stdev   307.855721                       # Bytes accessed per row activation
system.mem_ctrls.bytesPerActivate::0-127       484457     41.92%     41.92% # Bytes accessed per row activation
system.mem_ctrls.bytesPerActivate::128-255       308511     26.70%     68.61% # Bytes accessed per row activation
system.mem_ctrls.bytesPerActivate::256-383        94235      8.15%     76.77% # Bytes accessed per row activation
system.mem_ctrls.bytesPerActivate::384-511        56509      4.89%     81.66% # Bytes accessed per row activation
system.mem_ctrls.bytesPerActivate::512-639        40480      3.50%     85.16% # Bytes accessed per row activation
system.mem_ctrls.bytesPerActivate::640-767        25432      2.20%     87.36% # Bytes accessed per row activation
system.mem_ctrls.bytesPerActivate::768-895        18261      1.58%     88.94% # Bytes accessed per row activation
system.mem_ctrls.bytesPerActivate::896-1023        13149      1.14%     90.08% # Bytes accessed per row activation
system.mem_ctrls.bytesPerActivate::1024-1151       114644      9.92%    100.00% # Bytes accessed per row activation
system.mem_ctrls.bytesPerActivate::total      1155678                       # Bytes accessed per row activation
system.mem_ctrls.rdPerTurnAround::samples        31472                       # Reads before turning the bus around for writes
system.mem_ctrls.rdPerTurnAround::mean     137.034348                       # Reads before turning the bus around for writes
system.mem_ctrls.rdPerTurnAround::stdev   5818.212318                       # Reads before turning the bus around for writes
system.mem_ctrls.rdPerTurnAround::0-32767        31471    100.00%    100.00% # Reads before turning the bus around for writes
system.mem_ctrls.rdPerTurnAround::1.01581e+06-1.04858e+06            1      0.00%    100.00% # Reads before turning the bus around for writes
system.mem_ctrls.rdPerTurnAround::total         31472                       # Reads before turning the bus around for writes
system.mem_ctrls.wrPerTurnAround::samples        31472                       # Writes before turning the bus around for reads
system.mem_ctrls.wrPerTurnAround::mean      16.878050                       # Writes before turning the bus around for reads
system.mem_ctrls.wrPerTurnAround::gmean     16.728982                       # Writes before turning the bus around for reads
system.mem_ctrls.wrPerTurnAround::stdev      3.474479                       # Writes before turning the bus around for reads
system.mem_ctrls.wrPerTurnAround::16-19         30766     97.76%     97.76% # Writes before turning the bus around for reads
system.mem_ctrls.wrPerTurnAround::20-23           313      0.99%     98.75% # Writes before turning the bus around for reads
system.mem_ctrls.wrPerTurnAround::24-27            98      0.31%     99.06% # Writes before turning the bus around for reads
system.mem_ctrls.wrPerTurnAround::28-31            91      0.29%     99.35% # Writes before turning the bus around for reads
system.mem_ctrls.wrPerTurnAround::32-35            56      0.18%     99.53% # Writes before turning the bus around for reads
system.mem_ctrls.wrPerTurnAround::36-39            38      0.12%     99.65% # Writes before turning the bus around for reads
system.mem_ctrls.wrPerTurnAround::40-43            12      0.04%     99.69% # Writes before turning the bus around for reads
system.mem_ctrls.wrPerTurnAround::44-47            17      0.05%     99.74% # Writes before turning the bus around for reads
system.mem_ctrls.wrPerTurnAround::48-51            17      0.05%     99.80% # Writes before turning the bus around for reads
system.mem_ctrls.wrPerTurnAround::52-55            15      0.05%     99.84% # Writes before turning the bus around for reads
system.mem_ctrls.wrPerTurnAround::56-59             8      0.03%     99.87% # Writes before turning the bus around for reads
system.mem_ctrls.wrPerTurnAround::60-63             7      0.02%     99.89% # Writes before turning the bus around for reads
system.mem_ctrls.wrPerTurnAround::64-67             3      0.01%     99.90% # Writes before turning the bus around for reads
system.mem_ctrls.wrPerTurnAround::68-71             3      0.01%     99.91% # Writes before turning the bus around for reads
system.mem_ctrls.wrPerTurnAround::72-75             4      0.01%     99.92% # Writes before turning the bus around for reads
system.mem_ctrls.wrPerTurnAround::76-79             1      0.00%     99.93% # Writes before turning the bus around for reads
system.mem_ctrls.wrPerTurnAround::80-83             3      0.01%     99.94% # Writes before turning the bus around for reads
system.mem_ctrls.wrPerTurnAround::84-87             4      0.01%     99.95% # Writes before turning the bus around for reads
system.mem_ctrls.wrPerTurnAround::88-91             1      0.00%     99.95% # Writes before turning the bus around for reads
system.mem_ctrls.wrPerTurnAround::96-99             9      0.03%     99.98% # Writes before turning the bus around for reads
system.mem_ctrls.wrPerTurnAround::100-103            2      0.01%     99.99% # Writes before turning the bus around for reads
system.mem_ctrls.wrPerTurnAround::112-115            1      0.00%     99.99% # Writes before turning the bus around for reads
system.mem_ctrls.wrPerTurnAround::136-139            1      0.00%     99.99% # Writes before turning the bus around for reads
system.mem_ctrls.wrPerTurnAround::156-159            1      0.00%    100.00% # Writes before turning the bus around for reads
system.mem_ctrls.wrPerTurnAround::168-171            1      0.00%    100.00% # Writes before turning the bus around for reads
system.mem_ctrls.wrPerTurnAround::total         31472                       # Writes before turning the bus around for reads
system.mem_ctrls.totQLat                  41038230200                       # Total ticks spent queuing
system.mem_ctrls.totMemAccLat            121902817700                       # Total ticks spent from burst creation until serviced by the DRAM
system.mem_ctrls.totBusLat                21563890000                       # Total ticks spent in databus transfers
system.mem_ctrls.avgQLat                      9515.50                       # Average queueing delay per DRAM burst
system.mem_ctrls.avgBusLat                    5000.00                       # Average bus latency per DRAM burst
system.mem_ctrls.avgMemAccLat                28265.50                       # Average memory access latency per DRAM burst
system.mem_ctrls.avgRdBW                        99.96                       # Average DRAM read bandwidth in MiByte/s
system.mem_ctrls.avgWrBW                        12.31                       # Average achieved write bandwidth in MiByte/s
system.mem_ctrls.avgRdBWSys                    100.79                       # Average system read bandwidth in MiByte/s
system.mem_ctrls.avgWrBWSys                     12.43                       # Average system write bandwidth in MiByte/s
system.mem_ctrls.peakBW                      12800.00                       # Theoretical peak bandwidth in MiByte/s
system.mem_ctrls.busUtil                         0.88                       # Data bus utilization in percentage
system.mem_ctrls.busUtilRead                     0.78                       # Data bus utilization in percentage for reads
system.mem_ctrls.busUtilWrite                    0.10                       # Data bus utilization in percentage for writes
system.mem_ctrls.avgRdQLen                       1.03                       # Average read queue length when enqueuing
system.mem_ctrls.avgWrQLen                      26.11                       # Average write queue length when enqueuing
system.mem_ctrls.readRowHits                  3328197                       # Number of row buffer hits during reads
system.mem_ctrls.writeRowHits                  360084                       # Number of row buffer hits during writes
system.mem_ctrls.readRowHitRate                 77.17                       # Row buffer hit rate for reads
system.mem_ctrls.writeRowHitRate                67.79                       # Row buffer hit rate for writes
system.mem_ctrls.avgGap                     565279.36                       # Average gap between requests
system.mem_ctrls.pageHitRate                    76.14                       # Row buffer hit rate, read and write combined
system.mem_ctrls.memoryStateTime::IDLE   2165897224650                       # Time in different power states
system.mem_ctrls.memoryStateTime::REF     92206660000                       # Time in different power states
system.mem_ctrls.memoryStateTime::PRE_PDN            0                       # Time in different power states
system.mem_ctrls.memoryStateTime::ACT    503219875350                       # Time in different power states
system.mem_ctrls.memoryStateTime::ACT_PDN            0                       # Time in different power states
system.mem_ctrls.actEnergy::0              3593041200                       # Energy for activate commands per rank (pJ)
system.mem_ctrls.actEnergy::1              5143869360                       # Energy for activate commands per rank (pJ)
system.mem_ctrls.preEnergy::0              1960488750                       # Energy for precharge commands per rank (pJ)
system.mem_ctrls.preEnergy::1              2806674750                       # Energy for precharge commands per rank (pJ)
system.mem_ctrls.readEnergy::0            15122975400                       # Energy for read commands per rank (pJ)
system.mem_ctrls.readEnergy::1            18516482400                       # Energy for read commands per rank (pJ)
system.mem_ctrls.writeEnergy::0            1527971040                       # Energy for write commands per rank (pJ)
system.mem_ctrls.writeEnergy::1            1914114240                       # Energy for write commands per rank (pJ)
system.mem_ctrls.refreshEnergy::0        180356226960                       # Energy for refresh commands per rank (pJ)
system.mem_ctrls.refreshEnergy::1        180356226960                       # Energy for refresh commands per rank (pJ)
system.mem_ctrls.actBackEnergy::0        337437410490                       # Energy for active background per rank (pJ)
system.mem_ctrls.actBackEnergy::1        352836629100                       # Energy for active background per rank (pJ)
system.mem_ctrls.preBackEnergy::0        1360796519250                       # Energy for precharge background per rank (pJ)
system.mem_ctrls.preBackEnergy::1        1347288432750                       # Energy for precharge background per rank (pJ)
system.mem_ctrls.totalEnergy::0          1900794633090                       # Total energy per rank (pJ)
system.mem_ctrls.totalEnergy::1          1908862429560                       # Total energy per rank (pJ)
system.mem_ctrls.averagePower::0           688.363556                       # Core power per rank (mW)
system.mem_ctrls.averagePower::1           691.285269                       # Core power per rank (mW)
system.membus.trans_dist::ReadReq             4032579                       # Transaction distribution
system.membus.trans_dist::ReadResp            4032273                       # Transaction distribution
system.membus.trans_dist::WriteReq              10721                       # Transaction distribution
system.membus.trans_dist::WriteResp             10721                       # Transaction distribution
system.membus.trans_dist::Writeback            491947                       # Transaction distribution
system.membus.trans_dist::WriteInvalidateReq        44256                       # Transaction distribution
system.membus.trans_dist::WriteInvalidateResp        44256                       # Transaction distribution
system.membus.trans_dist::UpgradeReq              762                       # Transaction distribution
system.membus.trans_dist::SCUpgradeReq             11                       # Transaction distribution
system.membus.trans_dist::UpgradeResp             773                       # Transaction distribution
system.membus.trans_dist::ReadExReq            324914                       # Transaction distribution
system.membus.trans_dist::ReadExResp           324914                       # Transaction distribution
system.membus.trans_dist::BadAddressError          306                       # Transaction distribution
system.membus.pkt_count_system.iocache.mem_side::system.mem_ctrls.port        88799                       # Packet count per connected master and slave (bytes)
system.membus.pkt_count_system.iocache.mem_side::total        88799                       # Packet count per connected master and slave (bytes)
system.membus.pkt_count_system.cpu.icache.mem_side::system.mem_ctrls.port      2965006                       # Packet count per connected master and slave (bytes)
system.membus.pkt_count_system.cpu.icache.mem_side::total      2965006                       # Packet count per connected master and slave (bytes)
system.membus.pkt_count_system.cpu.dcache.mem_side::system.bridge.slave        36494                       # Packet count per connected master and slave (bytes)
system.membus.pkt_count_system.cpu.dcache.mem_side::system.mem_ctrls.port      6226551                       # Packet count per connected master and slave (bytes)
system.membus.pkt_count_system.cpu.dcache.mem_side::system.membus.badaddr_responder.pio          612                       # Packet count per connected master and slave (bytes)
system.membus.pkt_count_system.cpu.dcache.mem_side::total      6263657                       # Packet count per connected master and slave (bytes)
system.membus.pkt_count::total                9317462                       # Packet count per connected master and slave (bytes)
system.membus.pkt_size_system.iocache.mem_side::system.mem_ctrls.port      2837312                       # Cumulative packet size per connected master and slave (bytes)
system.membus.pkt_size_system.iocache.mem_side::total      2837312                       # Cumulative packet size per connected master and slave (bytes)
system.membus.pkt_size_system.cpu.icache.mem_side::system.mem_ctrls.port     94853376                       # Cumulative packet size per connected master and slave (bytes)
system.membus.pkt_size_system.cpu.icache.mem_side::total     94853376                       # Cumulative packet size per connected master and slave (bytes)
system.membus.pkt_size_system.cpu.dcache.mem_side::system.bridge.slave        48733                       # Cumulative packet size per connected master and slave (bytes)
system.membus.pkt_size_system.cpu.dcache.mem_side::system.mem_ctrls.port    214942464                       # Cumulative packet size per connected master and slave (bytes)
system.membus.pkt_size_system.cpu.dcache.mem_side::total    214991197                       # Cumulative packet size per connected master and slave (bytes)
system.membus.pkt_size::total               312681885                       # Cumulative packet size per connected master and slave (bytes)
system.membus.snoops                              971                       # Total snoops (count)
system.membus.snoop_fanout::samples           4886960                       # Request fanout histogram
system.membus.snoop_fanout::mean                    2                       # Request fanout histogram
system.membus.snoop_fanout::stdev                   0                       # Request fanout histogram
system.membus.snoop_fanout::underflows              0      0.00%      0.00% # Request fanout histogram
system.membus.snoop_fanout::0                       0      0.00%      0.00% # Request fanout histogram
system.membus.snoop_fanout::1                       0      0.00%      0.00% # Request fanout histogram
system.membus.snoop_fanout::2                 4886960    100.00%    100.00% # Request fanout histogram
system.membus.snoop_fanout::3                       0      0.00%    100.00% # Request fanout histogram
system.membus.snoop_fanout::overflows               0      0.00%    100.00% # Request fanout histogram
system.membus.snoop_fanout::min_value               2                       # Request fanout histogram
system.membus.snoop_fanout::max_value               2                       # Request fanout histogram
system.membus.snoop_fanout::total             4886960                       # Request fanout histogram
system.membus.reqLayer0.occupancy            37683849                       # Layer occupancy (ticks)
system.membus.reqLayer0.utilization               0.0                       # Layer utilization (%)
system.membus.reqLayer1.occupancy         11325865281                       # Layer occupancy (ticks)
system.membus.reqLayer1.utilization               0.4                       # Layer utilization (%)
system.membus.reqLayer2.occupancy              462700                       # Layer occupancy (ticks)
system.membus.reqLayer2.utilization               0.0                       # Layer utilization (%)
system.membus.respLayer1.occupancy           46295117                       # Layer occupancy (ticks)
system.membus.respLayer1.utilization              0.0                       # Layer utilization (%)
system.membus.respLayer2.occupancy        14044296830                       # Layer occupancy (ticks)
system.membus.respLayer2.utilization              0.5                       # Layer utilization (%)
system.membus.respLayer3.occupancy        27039732931                       # Layer occupancy (ticks)
system.membus.respLayer3.utilization              1.0                       # Layer utilization (%)
system.iocache.tags.replacements                44450                       # number of replacements
system.iocache.tags.tagsinuse                0.541347                       # Cycle average of tags in use
system.iocache.tags.total_refs                      0                       # Total number of references to valid blocks.
system.iocache.tags.sampled_refs                44450                       # Sample count of references to valid blocks.
system.iocache.tags.avg_refs                        0                       # Average number of references to valid blocks.
system.iocache.tags.warmup_cycle         2667902136000                       # Cycle when the warmup percentage was hit.
system.iocache.tags.occ_blocks::tsunami.ide     0.541347                       # Average occupied blocks per requestor
system.iocache.tags.occ_percent::tsunami.ide     0.033834                       # Average percentage of cache occupancy
system.iocache.tags.occ_percent::total       0.033834                       # Average percentage of cache occupancy
system.iocache.tags.occ_task_id_blocks::1023           16                       # Occupied blocks per task id
system.iocache.tags.age_task_id_blocks_1023::4           16                       # Occupied blocks per task id
system.iocache.tags.occ_task_id_percent::1023            1                       # Percentage of cache occupancy per task id
system.iocache.tags.tag_accesses               400194                       # Number of tag accesses
system.iocache.tags.data_accesses              400194                       # Number of data accesses
system.iocache.WriteInvalidateReq_hits::tsunami.ide        44256                       # number of WriteInvalidateReq hits
system.iocache.WriteInvalidateReq_hits::total        44256                       # number of WriteInvalidateReq hits
system.iocache.ReadReq_misses::tsunami.ide          210                       # number of ReadReq misses
system.iocache.ReadReq_misses::total              210                       # number of ReadReq misses
system.iocache.demand_misses::tsunami.ide          210                       # number of demand (read+write) misses
system.iocache.demand_misses::total               210                       # number of demand (read+write) misses
system.iocache.overall_misses::tsunami.ide          210                       # number of overall misses
system.iocache.overall_misses::total              210                       # number of overall misses
system.iocache.ReadReq_miss_latency::tsunami.ide     32341404                       # number of ReadReq miss cycles
system.iocache.ReadReq_miss_latency::total     32341404                       # number of ReadReq miss cycles
system.iocache.demand_miss_latency::tsunami.ide     32341404                       # number of demand (read+write) miss cycles
system.iocache.demand_miss_latency::total     32341404                       # number of demand (read+write) miss cycles
system.iocache.overall_miss_latency::tsunami.ide     32341404                       # number of overall miss cycles
system.iocache.overall_miss_latency::total     32341404                       # number of overall miss cycles
system.iocache.ReadReq_accesses::tsunami.ide          210                       # number of ReadReq accesses(hits+misses)
system.iocache.ReadReq_accesses::total            210                       # number of ReadReq accesses(hits+misses)
system.iocache.WriteInvalidateReq_accesses::tsunami.ide        44256                       # number of WriteInvalidateReq accesses(hits+misses)
system.iocache.WriteInvalidateReq_accesses::total        44256                       # number of WriteInvalidateReq accesses(hits+misses)
system.iocache.demand_accesses::tsunami.ide          210                       # number of demand (read+write) accesses
system.iocache.demand_accesses::total             210                       # number of demand (read+write) accesses
system.iocache.overall_accesses::tsunami.ide          210                       # number of overall (read+write) accesses
system.iocache.overall_accesses::total            210                       # number of overall (read+write) accesses
system.iocache.ReadReq_miss_rate::tsunami.ide            1                       # miss rate for ReadReq accesses
system.iocache.ReadReq_miss_rate::total             1                       # miss rate for ReadReq accesses
system.iocache.demand_miss_rate::tsunami.ide            1                       # miss rate for demand accesses
system.iocache.demand_miss_rate::total              1                       # miss rate for demand accesses
system.iocache.overall_miss_rate::tsunami.ide            1                       # miss rate for overall accesses
system.iocache.overall_miss_rate::total             1                       # miss rate for overall accesses
system.iocache.ReadReq_avg_miss_latency::tsunami.ide 154006.685714                       # average ReadReq miss latency
system.iocache.ReadReq_avg_miss_latency::total 154006.685714                       # average ReadReq miss latency
system.iocache.demand_avg_miss_latency::tsunami.ide 154006.685714                       # average overall miss latency
system.iocache.demand_avg_miss_latency::total 154006.685714                       # average overall miss latency
system.iocache.overall_avg_miss_latency::tsunami.ide 154006.685714                       # average overall miss latency
system.iocache.overall_avg_miss_latency::total 154006.685714                       # average overall miss latency
system.iocache.blocked_cycles::no_mshrs           429                       # number of cycles access was blocked
system.iocache.blocked_cycles::no_targets            0                       # number of cycles access was blocked
system.iocache.blocked::no_mshrs                   45                       # number of cycles access was blocked
system.iocache.blocked::no_targets                  0                       # number of cycles access was blocked
system.iocache.avg_blocked_cycles::no_mshrs     9.533333                       # average number of cycles each access was blocked
system.iocache.avg_blocked_cycles::no_targets          nan                       # average number of cycles each access was blocked
system.iocache.fast_writes                      44256                       # number of fast writes performed
system.iocache.cache_copies                         0                       # number of cache copies performed
system.iocache.ReadReq_mshr_misses::tsunami.ide          210                       # number of ReadReq MSHR misses
system.iocache.ReadReq_mshr_misses::total          210                       # number of ReadReq MSHR misses
system.iocache.WriteInvalidateReq_mshr_misses::tsunami.ide        44256                       # number of WriteInvalidateReq MSHR misses
system.iocache.WriteInvalidateReq_mshr_misses::total        44256                       # number of WriteInvalidateReq MSHR misses
system.iocache.demand_mshr_misses::tsunami.ide          210                       # number of demand (read+write) MSHR misses
system.iocache.demand_mshr_misses::total          210                       # number of demand (read+write) MSHR misses
system.iocache.overall_mshr_misses::tsunami.ide          210                       # number of overall MSHR misses
system.iocache.overall_mshr_misses::total          210                       # number of overall MSHR misses
system.iocache.ReadReq_mshr_miss_latency::tsunami.ide     21302004                       # number of ReadReq MSHR miss cycles
system.iocache.ReadReq_mshr_miss_latency::total     21302004                       # number of ReadReq MSHR miss cycles
system.iocache.WriteInvalidateReq_mshr_miss_latency::tsunami.ide   2906960801                       # number of WriteInvalidateReq MSHR miss cycles
system.iocache.WriteInvalidateReq_mshr_miss_latency::total   2906960801                       # number of WriteInvalidateReq MSHR miss cycles
system.iocache.demand_mshr_miss_latency::tsunami.ide     21302004                       # number of demand (read+write) MSHR miss cycles
system.iocache.demand_mshr_miss_latency::total     21302004                       # number of demand (read+write) MSHR miss cycles
system.iocache.overall_mshr_miss_latency::tsunami.ide     21302004                       # number of overall MSHR miss cycles
system.iocache.overall_mshr_miss_latency::total     21302004                       # number of overall MSHR miss cycles
system.iocache.ReadReq_mshr_miss_rate::tsunami.ide            1                       # mshr miss rate for ReadReq accesses
system.iocache.ReadReq_mshr_miss_rate::total            1                       # mshr miss rate for ReadReq accesses
system.iocache.WriteInvalidateReq_mshr_miss_rate::tsunami.ide            1                       # mshr miss rate for WriteInvalidateReq accesses
system.iocache.WriteInvalidateReq_mshr_miss_rate::total            1                       # mshr miss rate for WriteInvalidateReq accesses
system.iocache.demand_mshr_miss_rate::tsunami.ide            1                       # mshr miss rate for demand accesses
system.iocache.demand_mshr_miss_rate::total            1                       # mshr miss rate for demand accesses
system.iocache.overall_mshr_miss_rate::tsunami.ide            1                       # mshr miss rate for overall accesses
system.iocache.overall_mshr_miss_rate::total            1                       # mshr miss rate for overall accesses
system.iocache.ReadReq_avg_mshr_miss_latency::tsunami.ide 101438.114286                       # average ReadReq mshr miss latency
system.iocache.ReadReq_avg_mshr_miss_latency::total 101438.114286                       # average ReadReq mshr miss latency
system.iocache.WriteInvalidateReq_avg_mshr_miss_latency::tsunami.ide 65685.122944                       # average WriteInvalidateReq mshr miss latency
system.iocache.WriteInvalidateReq_avg_mshr_miss_latency::total 65685.122944                       # average WriteInvalidateReq mshr miss latency
system.iocache.demand_avg_mshr_miss_latency::tsunami.ide 101438.114286                       # average overall mshr miss latency
system.iocache.demand_avg_mshr_miss_latency::total 101438.114286                       # average overall mshr miss latency
system.iocache.overall_avg_mshr_miss_latency::tsunami.ide 101438.114286                       # average overall mshr miss latency
system.iocache.overall_avg_mshr_miss_latency::total 101438.114286                       # average overall mshr miss latency
system.iocache.no_allocate_misses                   0                       # Number of misses that were no-allocate
system.disk0.dma_read_full_pages                    0                       # Number of full page size DMA reads (not PRD).
system.disk0.dma_read_bytes                      4096                       # Number of bytes transfered via DMA reads (not PRD).
system.disk0.dma_read_txs                           1                       # Number of DMA read transactions (not PRD).
system.disk0.dma_write_full_pages                 326                       # Number of full page size DMA writes.
system.disk0.dma_write_bytes                  2824192                       # Number of bytes transfered via DMA writes.
system.disk0.dma_write_txs                        365                       # Number of DMA write transactions.
system.disk2.dma_read_full_pages                    0                       # Number of full page size DMA reads (not PRD).
system.disk2.dma_read_bytes                         0                       # Number of bytes transfered via DMA reads (not PRD).
system.disk2.dma_read_txs                           0                       # Number of DMA read transactions (not PRD).
system.disk2.dma_write_full_pages                   1                       # Number of full page size DMA writes.
system.disk2.dma_write_bytes                     8192                       # Number of bytes transfered via DMA writes.
system.disk2.dma_write_txs                          1                       # Number of DMA write transactions.
system.cpu.branchPred.lookups                27872588                       # Number of BP lookups
system.cpu.branchPred.condPredicted          23678707                       # Number of conditional branches predicted
system.cpu.branchPred.condIncorrect            622410                       # Number of conditional branches incorrect
system.cpu.branchPred.BTBLookups             19034389                       # Number of BTB lookups
system.cpu.branchPred.BTBHits                10776538                       # Number of BTB hits
system.cpu.branchPred.BTBCorrect                    0                       # Number of correct BTB predictions (this stat may not work properly.
system.cpu.branchPred.BTBHitPct             56.616149                       # BTB Hit Percentage
system.cpu.branchPred.usedRAS                 1716429                       # Number of times the RAS was used to get a target.
system.cpu.branchPred.RASInCorrect              37431                       # Number of incorrect RAS predictions.
system.cpu_voltage_domain.voltage                   1                       # Voltage in Volts
system.cpu_clk_domain.clock                      5650                       # Clock period in ticks
system.cpu.dtb.fetch_hits                           0                       # ITB hits
system.cpu.dtb.fetch_misses                         0                       # ITB misses
system.cpu.dtb.fetch_acv                            0                       # ITB acv
system.cpu.dtb.fetch_accesses                       0                       # ITB accesses
system.cpu.dtb.read_hits                     17353097                       # DTB read hits
system.cpu.dtb.read_misses                      79933                       # DTB read misses
system.cpu.dtb.read_acv                           220                       # DTB read access violations
system.cpu.dtb.read_accesses                  1148496                       # DTB read accesses
system.cpu.dtb.write_hits                     8742134                       # DTB write hits
system.cpu.dtb.write_misses                     14758                       # DTB write misses
system.cpu.dtb.write_acv                          501                       # DTB write access violations
system.cpu.dtb.write_accesses                  411921                       # DTB write accesses
system.cpu.dtb.data_hits                     26095231                       # DTB hits
system.cpu.dtb.data_misses                      94691                       # DTB misses
system.cpu.dtb.data_acv                           721                       # DTB access violations
system.cpu.dtb.data_accesses                  1560417                       # DTB accesses
system.cpu.itb.fetch_hits                     2143335                       # ITB hits
system.cpu.itb.fetch_misses                     28760                       # ITB misses
system.cpu.itb.fetch_acv                          796                       # ITB acv
system.cpu.itb.fetch_accesses                 2172095                       # ITB accesses
system.cpu.itb.read_hits                            0                       # DTB read hits
system.cpu.itb.read_misses                          0                       # DTB read misses
system.cpu.itb.read_acv                             0                       # DTB read access violations
system.cpu.itb.read_accesses                        0                       # DTB read accesses
system.cpu.itb.write_hits                           0                       # DTB write hits
system.cpu.itb.write_misses                         0                       # DTB write misses
system.cpu.itb.write_acv                            0                       # DTB write access violations
system.cpu.itb.write_accesses                       0                       # DTB write accesses
system.cpu.itb.data_hits                            0                       # DTB hits
system.cpu.itb.data_misses                          0                       # DTB misses
system.cpu.itb.data_acv                             0                       # DTB access violations
system.cpu.itb.data_accesses                        0                       # DTB accesses
system.cpu.numCycles                         95363309                       # number of cpu cycles simulated
system.cpu.numWorkItemsStarted                      0                       # number of work items this cpu started
system.cpu.numWorkItemsCompleted                    0                       # number of work items this cpu completed
system.cpu.fetch.icacheStallCycles           31577371                       # Number of cycles fetch is stalled on an Icache miss
system.cpu.fetch.Insts                      122751641                       # Number of instructions fetch has processed
system.cpu.fetch.Branches                    27872588                       # Number of branches that fetch encountered
system.cpu.fetch.predictedBranches           12492967                       # Number of branches that fetch has predicted taken
system.cpu.fetch.Cycles                      60905948                       # Number of cycles fetch has run and was not squashing or blocked
system.cpu.fetch.SquashCycles                 1832260                       # Number of cycles fetch has spent squashing
system.cpu.fetch.TlbCycles                       1863                       # Number of cycles fetch has spent waiting for tlb
system.cpu.fetch.MiscStallCycles                47186                       # Number of cycles fetch has spent waiting on interrupts, or bad addresses, or out of MSHRs
system.cpu.fetch.PendingTrapStallCycles        861431                       # Number of stall cycles due to pending traps
system.cpu.fetch.PendingQuiesceStallCycles       358732                       # Number of stall cycles due to pending quiesce instructions
system.cpu.fetch.CacheLines                  15735081                       # Number of cache lines fetched
system.cpu.fetch.IcacheSquashes                417645                       # Number of outstanding Icache misses that were squashed
system.cpu.fetch.ItlbSquashes                      15                       # Number of outstanding ITLB misses that were squashed
system.cpu.fetch.rateDist::samples           94668661                       # Number of instructions fetched each cycle (Total)
system.cpu.fetch.rateDist::mean              1.296645                       # Number of instructions fetched each cycle (Total)
system.cpu.fetch.rateDist::stdev             2.516924                       # Number of instructions fetched each cycle (Total)
system.cpu.fetch.rateDist::underflows               0      0.00%      0.00% # Number of instructions fetched each cycle (Total)
system.cpu.fetch.rateDist::0                 69342516     73.25%     73.25% # Number of instructions fetched each cycle (Total)
system.cpu.fetch.rateDist::1                  2617739      2.77%     76.01% # Number of instructions fetched each cycle (Total)
system.cpu.fetch.rateDist::2                  3443913      3.64%     79.65% # Number of instructions fetched each cycle (Total)
system.cpu.fetch.rateDist::3                  2609901      2.76%     82.41% # Number of instructions fetched each cycle (Total)
system.cpu.fetch.rateDist::4                  5012221      5.29%     87.70% # Number of instructions fetched each cycle (Total)
system.cpu.fetch.rateDist::5                  1089427      1.15%     88.85% # Number of instructions fetched each cycle (Total)
system.cpu.fetch.rateDist::6                  1864204      1.97%     90.82% # Number of instructions fetched each cycle (Total)
system.cpu.fetch.rateDist::7                   774790      0.82%     91.64% # Number of instructions fetched each cycle (Total)
system.cpu.fetch.rateDist::8                  7913950      8.36%    100.00% # Number of instructions fetched each cycle (Total)
system.cpu.fetch.rateDist::overflows                0      0.00%    100.00% # Number of instructions fetched each cycle (Total)
system.cpu.fetch.rateDist::min_value                0                       # Number of instructions fetched each cycle (Total)
system.cpu.fetch.rateDist::max_value                8                       # Number of instructions fetched each cycle (Total)
system.cpu.fetch.rateDist::total             94668661                       # Number of instructions fetched each cycle (Total)
system.cpu.fetch.branchRate                  0.292278                       # Number of branch fetches per cycle
system.cpu.fetch.rate                        1.287200                       # Number of inst fetches per cycle
system.cpu.decode.IdleCycles                 25753917                       # Number of cycles decode is idle
system.cpu.decode.BlockedCycles              47569206                       # Number of cycles decode is blocked
system.cpu.decode.RunCycles                  17576418                       # Number of cycles decode is running
system.cpu.decode.UnblockCycles               2932433                       # Number of cycles decode is unblocking
system.cpu.decode.SquashCycles                 836686                       # Number of cycles decode is squashing
system.cpu.decode.BranchResolved               910790                       # Number of times decode resolved a branch
system.cpu.decode.BranchMispred                 80394                       # Number of times decode detected a branch misprediction
system.cpu.decode.DecodedInsts              109987407                       # Number of instructions handled by decode
system.cpu.decode.SquashedInsts                238167                       # Number of squashed instructions handled by decode
system.cpu.rename.SquashCycles                 836686                       # Number of cycles rename is squashing
system.cpu.rename.IdleCycles                 27134547                       # Number of cycles rename is idle
system.cpu.rename.BlockCycles                16963872                       # Number of cycles rename is blocking
system.cpu.rename.serializeStallCycles       22356653                       # count of cycles rename stalled for serializing inst
system.cpu.rename.RunCycles                  19055471                       # Number of cycles rename is running
system.cpu.rename.UnblockCycles               8321430                       # Number of cycles rename is unblocking
system.cpu.rename.RenamedInsts              106640468                       # Number of instructions processed by rename
system.cpu.rename.ROBFullEvents                265269                       # Number of times rename has blocked due to ROB full
system.cpu.rename.IQFullEvents                5256476                       # Number of times rename has blocked due to IQ full
system.cpu.rename.LQFullEvents                 491430                       # Number of times rename has blocked due to LQ full
system.cpu.rename.SQFullEvents                 316935                       # Number of times rename has blocked due to SQ full
system.cpu.rename.RenamedOperands            76730951                       # Number of destination operands rename has renamed
system.cpu.rename.RenameLookups             136997172                       # Number of register rename lookups that rename has made
system.cpu.rename.int_rename_lookups        136798850                       # Number of integer rename lookups
system.cpu.rename.fp_rename_lookups            183916                       # Number of floating rename lookups
system.cpu.rename.CommittedMaps              67591929                       # Number of HB maps that are committed
system.cpu.rename.UndoneMaps                  9139014                       # Number of HB maps that are undone due to squashing
system.cpu.rename.serializingInsts            2005138                       # count of serializing insts renamed
system.cpu.rename.tempSerializingInsts         328306                       # count of temporary serializing insts renamed
system.cpu.rename.skidInsts                  19113900                       # count of insts added to the skid buffer
system.cpu.memDep0.insertedLoads             18196013                       # Number of loads inserted to the mem dependence unit.
system.cpu.memDep0.insertedStores             9204922                       # Number of stores inserted to the mem dependence unit.
system.cpu.memDep0.conflictingLoads           2642294                       # Number of conflicting loads.
system.cpu.memDep0.conflictingStores          1774098                       # Number of conflicting stores.
system.cpu.iq.iqInstsAdded                   99909692                       # Number of instructions added to the IQ (excludes non-spec)
system.cpu.iq.iqNonSpecInstsAdded             2727614                       # Number of non-speculative instructions added to the IQ
system.cpu.iq.iqInstsIssued                  97461683                       # Number of instructions issued
system.cpu.iq.iqSquashedInstsIssued             78187                       # Number of squashed instructions issued
system.cpu.iq.iqSquashedInstsExamined        11296201                       # Number of squashed instructions iterated over during squash; mainly for profiling
system.cpu.iq.iqSquashedOperandsExamined      5657618                       # Number of squashed operands that are examined and possibly removed from graph
system.cpu.iq.iqSquashedNonSpecRemoved        1737131                       # Number of squashed non-spec instructions that were removed
system.cpu.iq.issued_per_cycle::samples      94668661                       # Number of insts issued each cycle
system.cpu.iq.issued_per_cycle::mean         1.029503                       # Number of insts issued each cycle
system.cpu.iq.issued_per_cycle::stdev        1.620755                       # Number of insts issued each cycle
system.cpu.iq.issued_per_cycle::underflows            0      0.00%      0.00% # Number of insts issued each cycle
system.cpu.iq.issued_per_cycle::0            54152415     57.20%     57.20% # Number of insts issued each cycle
system.cpu.iq.issued_per_cycle::1            17825584     18.83%     76.03% # Number of insts issued each cycle
system.cpu.iq.issued_per_cycle::2             7496759      7.92%     83.95% # Number of insts issued each cycle
system.cpu.iq.issued_per_cycle::3             5491602      5.80%     89.75% # Number of insts issued each cycle
system.cpu.iq.issued_per_cycle::4             4600118      4.86%     94.61% # Number of insts issued each cycle
system.cpu.iq.issued_per_cycle::5             2373241      2.51%     97.12% # Number of insts issued each cycle
system.cpu.iq.issued_per_cycle::6             1575827      1.66%     98.78% # Number of insts issued each cycle
system.cpu.iq.issued_per_cycle::7              778784      0.82%     99.60% # Number of insts issued each cycle
system.cpu.iq.issued_per_cycle::8              374331      0.40%    100.00% # Number of insts issued each cycle
system.cpu.iq.issued_per_cycle::overflows            0      0.00%    100.00% # Number of insts issued each cycle
system.cpu.iq.issued_per_cycle::min_value            0                       # Number of insts issued each cycle
system.cpu.iq.issued_per_cycle::max_value            8                       # Number of insts issued each cycle
system.cpu.iq.issued_per_cycle::total        94668661                       # Number of insts issued each cycle
system.cpu.iq.fu_full::No_OpClass                   0      0.00%      0.00% # attempts to use FU when none available
system.cpu.iq.fu_full::IntAlu                  558445     30.08%     30.08% # attempts to use FU when none available
system.cpu.iq.fu_full::IntMult                      2      0.00%     30.08% # attempts to use FU when none available
system.cpu.iq.fu_full::IntDiv                       0      0.00%     30.08% # attempts to use FU when none available
system.cpu.iq.fu_full::FloatAdd                     0      0.00%     30.08% # attempts to use FU when none available
system.cpu.iq.fu_full::FloatCmp                     0      0.00%     30.08% # attempts to use FU when none available
system.cpu.iq.fu_full::FloatCvt                     0      0.00%     30.08% # attempts to use FU when none available
system.cpu.iq.fu_full::FloatMult                    0      0.00%     30.08% # attempts to use FU when none available
system.cpu.iq.fu_full::FloatDiv                     0      0.00%     30.08% # attempts to use FU when none available
system.cpu.iq.fu_full::FloatSqrt                    0      0.00%     30.08% # attempts to use FU when none available
system.cpu.iq.fu_full::SimdAdd                      0      0.00%     30.08% # attempts to use FU when none available
system.cpu.iq.fu_full::SimdAddAcc                   0      0.00%     30.08% # attempts to use FU when none available
system.cpu.iq.fu_full::SimdAlu                      0      0.00%     30.08% # attempts to use FU when none available
system.cpu.iq.fu_full::SimdCmp                      0      0.00%     30.08% # attempts to use FU when none available
system.cpu.iq.fu_full::SimdCvt                      0      0.00%     30.08% # attempts to use FU when none available
system.cpu.iq.fu_full::SimdMisc                     0      0.00%     30.08% # attempts to use FU when none available
system.cpu.iq.fu_full::SimdMult                     0      0.00%     30.08% # attempts to use FU when none available
system.cpu.iq.fu_full::SimdMultAcc                  0      0.00%     30.08% # attempts to use FU when none available
system.cpu.iq.fu_full::SimdShift                    0      0.00%     30.08% # attempts to use FU when none available
system.cpu.iq.fu_full::SimdShiftAcc                 0      0.00%     30.08% # attempts to use FU when none available
system.cpu.iq.fu_full::SimdSqrt                     0      0.00%     30.08% # attempts to use FU when none available
system.cpu.iq.fu_full::SimdFloatAdd                 0      0.00%     30.08% # attempts to use FU when none available
system.cpu.iq.fu_full::SimdFloatAlu                 0      0.00%     30.08% # attempts to use FU when none available
system.cpu.iq.fu_full::SimdFloatCmp                 0      0.00%     30.08% # attempts to use FU when none available
system.cpu.iq.fu_full::SimdFloatCvt                 0      0.00%     30.08% # attempts to use FU when none available
system.cpu.iq.fu_full::SimdFloatDiv                 0      0.00%     30.08% # attempts to use FU when none available
system.cpu.iq.fu_full::SimdFloatMisc                0      0.00%     30.08% # attempts to use FU when none available
system.cpu.iq.fu_full::SimdFloatMult                0      0.00%     30.08% # attempts to use FU when none available
system.cpu.iq.fu_full::SimdFloatMultAcc             0      0.00%     30.08% # attempts to use FU when none available
system.cpu.iq.fu_full::SimdFloatSqrt                0      0.00%     30.08% # attempts to use FU when none available
system.cpu.iq.fu_full::MemRead                 780540     42.05%     72.13% # attempts to use FU when none available
system.cpu.iq.fu_full::MemWrite                517415     27.87%    100.00% # attempts to use FU when none available
system.cpu.iq.fu_full::IprAccess                    0      0.00%    100.00% # attempts to use FU when none available
system.cpu.iq.fu_full::InstPrefetch                 0      0.00%    100.00% # attempts to use FU when none available
system.cpu.iq.FU_type_0::No_OpClass              8370      0.01%      0.01% # Type of FU issued
system.cpu.iq.FU_type_0::IntAlu              69128118     70.93%     70.94% # Type of FU issued
system.cpu.iq.FU_type_0::IntMult               162375      0.17%     71.10% # Type of FU issued
system.cpu.iq.FU_type_0::IntDiv                     0      0.00%     71.10% # Type of FU issued
system.cpu.iq.FU_type_0::FloatAdd               85805      0.09%     71.19% # Type of FU issued
system.cpu.iq.FU_type_0::FloatCmp                   0      0.00%     71.19% # Type of FU issued
system.cpu.iq.FU_type_0::FloatCvt                   0      0.00%     71.19% # Type of FU issued
system.cpu.iq.FU_type_0::FloatMult                  0      0.00%     71.19% # Type of FU issued
system.cpu.iq.FU_type_0::FloatDiv                4183      0.00%     71.20% # Type of FU issued
system.cpu.iq.FU_type_0::FloatSqrt                  0      0.00%     71.20% # Type of FU issued
system.cpu.iq.FU_type_0::SimdAdd                    0      0.00%     71.20% # Type of FU issued
system.cpu.iq.FU_type_0::SimdAddAcc                 0      0.00%     71.20% # Type of FU issued
system.cpu.iq.FU_type_0::SimdAlu                    0      0.00%     71.20% # Type of FU issued
system.cpu.iq.FU_type_0::SimdCmp                    0      0.00%     71.20% # Type of FU issued
system.cpu.iq.FU_type_0::SimdCvt                    0      0.00%     71.20% # Type of FU issued
system.cpu.iq.FU_type_0::SimdMisc                   0      0.00%     71.20% # Type of FU issued
system.cpu.iq.FU_type_0::SimdMult                   0      0.00%     71.20% # Type of FU issued
system.cpu.iq.FU_type_0::SimdMultAcc                0      0.00%     71.20% # Type of FU issued
system.cpu.iq.FU_type_0::SimdShift                  0      0.00%     71.20% # Type of FU issued
system.cpu.iq.FU_type_0::SimdShiftAcc               0      0.00%     71.20% # Type of FU issued
system.cpu.iq.FU_type_0::SimdSqrt                   0      0.00%     71.20% # Type of FU issued
system.cpu.iq.FU_type_0::SimdFloatAdd               0      0.00%     71.20% # Type of FU issued
system.cpu.iq.FU_type_0::SimdFloatAlu               0      0.00%     71.20% # Type of FU issued
system.cpu.iq.FU_type_0::SimdFloatCmp               0      0.00%     71.20% # Type of FU issued
system.cpu.iq.FU_type_0::SimdFloatCvt               0      0.00%     71.20% # Type of FU issued
system.cpu.iq.FU_type_0::SimdFloatDiv               0      0.00%     71.20% # Type of FU issued
system.cpu.iq.FU_type_0::SimdFloatMisc              0      0.00%     71.20% # Type of FU issued
system.cpu.iq.FU_type_0::SimdFloatMult              0      0.00%     71.20% # Type of FU issued
system.cpu.iq.FU_type_0::SimdFloatMultAcc            0      0.00%     71.20% # Type of FU issued
system.cpu.iq.FU_type_0::SimdFloatSqrt              0      0.00%     71.20% # Type of FU issued
system.cpu.iq.FU_type_0::MemRead             18047407     18.52%     89.71% # Type of FU issued
system.cpu.iq.FU_type_0::MemWrite             8930331      9.16%     98.88% # Type of FU issued
system.cpu.iq.FU_type_0::IprAccess            1095094      1.12%    100.00% # Type of FU issued
system.cpu.iq.FU_type_0::InstPrefetch               0      0.00%    100.00% # Type of FU issued
system.cpu.iq.FU_type_0::total               97461683                       # Type of FU issued
system.cpu.iq.rate                           1.022004                       # Inst issue rate
system.cpu.iq.fu_busy_cnt                     1856402                       # FU busy when requested
system.cpu.iq.fu_busy_rate                   0.019048                       # FU busy rate (busy events/executed inst)
system.cpu.iq.int_inst_queue_reads          290659340                       # Number of integer instruction queue reads
system.cpu.iq.int_inst_queue_writes         113557452                       # Number of integer instruction queue writes
system.cpu.iq.int_inst_queue_wakeup_accesses     95586044                       # Number of integer instruction queue wakeup accesses
system.cpu.iq.fp_inst_queue_reads              867275                       # Number of floating instruction queue reads
system.cpu.iq.fp_inst_queue_writes             413271                       # Number of floating instruction queue writes
system.cpu.iq.fp_inst_queue_wakeup_accesses       404574                       # Number of floating instruction queue wakeup accesses
system.cpu.iq.int_alu_accesses               98848541                       # Number of integer alu accesses
system.cpu.iq.fp_alu_accesses                  461174                       # Number of floating point alu accesses
system.cpu.iew.lsq.thread0.forwLoads           840997                       # Number of loads that had data forwarded from stores
system.cpu.iew.lsq.thread0.invAddrLoads             0                       # Number of loads ignored due to an invalid address
system.cpu.iew.lsq.thread0.squashedLoads      2204128                       # Number of loads squashed
system.cpu.iew.lsq.thread0.ignoredResponses         3756                       # Number of memory responses ignored because the instruction is squashed
system.cpu.iew.lsq.thread0.memOrderViolation        37707                       # Number of memory ordering violations
system.cpu.iew.lsq.thread0.squashedStores       923494                       # Number of stores squashed
system.cpu.iew.lsq.thread0.invAddrSwpfs             0                       # Number of software prefetches ignored due to an invalid address
system.cpu.iew.lsq.thread0.blockedLoads             0                       # Number of blocked loads due to partial load-store forwarding
system.cpu.iew.lsq.thread0.rescheduledLoads        20189                       # Number of loads that were rescheduled
system.cpu.iew.lsq.thread0.cacheBlocked         61230                       # Number of times an access to memory failed due to the cache being blocked
system.cpu.iew.iewIdleCycles                        0                       # Number of cycles IEW is idle
system.cpu.iew.iewSquashCycles                 836686                       # Number of cycles IEW is squashing
system.cpu.iew.iewBlockCycles                11744545                       # Number of cycles IEW is blocking
system.cpu.iew.iewUnblockCycles                373147                       # Number of cycles IEW is unblocking
[...]
system.cpu.dcache.overall_misses::cpu.data        95500                       # number of overall misses
system.cpu.dcache.overall_misses::total         95500                       # number of overall misses
system.cpu.dcache.ReadReq_miss_latency::cpu.data   2087300250                       # number of ReadReq miss cycles
system.cpu.dcache.ReadReq_miss_latency::total   2087300250                       # number of ReadReq miss cycles
system.cpu.dcache.WriteReq_miss_latency::cpu.data   5449857871                       # number of WriteReq miss cycles
system.cpu.dcache.WriteReq_miss_latency::total   5449857871                       # number of WriteReq miss cycles
system.cpu.dcache.LoadLockedReq_miss_latency::cpu.data     32132150                       # number of LoadLockedReq miss cycles
system.cpu.dcache.LoadLockedReq_miss_latency::total     32132150                       # number of LoadLockedReq miss cycles
system.cpu.dcache.demand_miss_latency::cpu.data   7537158121                       # number of demand (read+write) miss cycles
system.cpu.dcache.demand_miss_latency::total   7537158121                       # number of demand (read+write) miss cycles
system.cpu.dcache.overall_miss_latency::cpu.data   7537158121                       # number of overall miss cycles
system.cpu.dcache.overall_miss_latency::total   7537158121                       # number of overall miss cycles
system.cpu.dcache.ReadReq_accesses::cpu.data       157439                       # number of ReadReq accesses(hits+misses)
system.cpu.dcache.ReadReq_accesses::total       157439                       # number of ReadReq accesses(hits+misses)
system.cpu.dcache.WriteReq_accesses::cpu.data       131082                       # number of WriteReq accesses(hits+misses)
system.cpu.dcache.WriteReq_accesses::total       131082                       # number of WriteReq accesses(hits+misses)
system.cpu.dcache.LoadLockedReq_accesses::cpu.data         2730                       # number of LoadLockedReq accesses(hits+misses)
system.cpu.dcache.LoadLockedReq_accesses::total         2730                       # number of LoadLockedReq accesses(hits+misses)
system.cpu.dcache.StoreCondReq_accesses::cpu.data         2477                       # number of StoreCondReq accesses(hits+misses)
system.cpu.dcache.StoreCondReq_accesses::total         2477                       # number of StoreCondReq accesses(hits+misses)
system.cpu.dcache.demand_accesses::cpu.data       288521                       # number of demand (read+write) accesses
system.cpu.dcache.demand_accesses::total       288521                       # number of demand (read+write) accesses
system.cpu.dcache.overall_accesses::cpu.data       288521                       # number of overall (read+write) accesses
system.cpu.dcache.overall_accesses::total       288521                       # number of overall (read+write) accesses
system.cpu.dcache.ReadReq_miss_rate::cpu.data     0.171050                       # miss rate for ReadReq accesses
system.cpu.dcache.ReadReq_miss_rate::total     0.171050                       # miss rate for ReadReq accesses
system.cpu.dcache.WriteReq_miss_rate::cpu.data     0.523108                       # miss rate for WriteReq accesses
system.cpu.dcache.WriteReq_miss_rate::total     0.523108                       # miss rate for WriteReq accesses
system.cpu.dcache.LoadLockedReq_miss_rate::cpu.data     0.146154                       # miss rate for LoadLockedReq accesses
system.cpu.dcache.LoadLockedReq_miss_rate::total     0.146154                       # miss rate for LoadLockedReq accesses
system.cpu.dcache.demand_miss_rate::cpu.data     0.330998                       # miss rate for demand accesses
system.cpu.dcache.demand_miss_rate::total     0.330998                       # miss rate for demand accesses
system.cpu.dcache.overall_miss_rate::cpu.data     0.330998                       # miss rate for overall accesses
system.cpu.dcache.overall_miss_rate::total     0.330998                       # miss rate for overall accesses
system.cpu.dcache.ReadReq_avg_miss_latency::cpu.data 77508.364278                       # average ReadReq miss latency
system.cpu.dcache.ReadReq_avg_miss_latency::total 77508.364278                       # average ReadReq miss latency
system.cpu.dcache.WriteReq_avg_miss_latency::cpu.data 79478.749759                       # average WriteReq miss latency
system.cpu.dcache.WriteReq_avg_miss_latency::total 79478.749759                       # average WriteReq miss latency
system.cpu.dcache.LoadLockedReq_avg_miss_latency::cpu.data 80531.704261                       # average LoadLockedReq miss latency
system.cpu.dcache.LoadLockedReq_avg_miss_latency::total 80531.704261                       # average LoadLockedReq miss latency
system.cpu.dcache.demand_avg_miss_latency::cpu.data 78923.121686                       # average overall miss latency
system.cpu.dcache.demand_avg_miss_latency::total 78923.121686                       # average overall miss latency
system.cpu.dcache.overall_avg_miss_latency::cpu.data 78923.121686                       # average overall miss latency
system.cpu.dcache.overall_avg_miss_latency::total 78923.121686                       # average overall miss latency
system.cpu.dcache.blocked_cycles::no_mshrs        11421                       # number of cycles access was blocked
system.cpu.dcache.blocked_cycles::no_targets            0                       # number of cycles access was blocked
system.cpu.dcache.blocked::no_mshrs              1743                       # number of cycles access was blocked
system.cpu.dcache.blocked::no_targets               0                       # number of cycles access was blocked
system.cpu.dcache.avg_blocked_cycles::no_mshrs     6.552496                       # average number of cycles each access was blocked
system.cpu.dcache.avg_blocked_cycles::no_targets          nan                       # average number of cycles each access was blocked
system.cpu.dcache.fast_writes                       0                       # number of fast writes performed
system.cpu.dcache.cache_copies                      0                       # number of cache copies performed
system.cpu.dcache.writebacks::writebacks        10601                       # number of writebacks
system.cpu.dcache.writebacks::total             10601                       # number of writebacks
system.cpu.dcache.ReadReq_mshr_hits::cpu.data        18653                       # number of ReadReq MSHR hits
system.cpu.dcache.ReadReq_mshr_hits::total        18653                       # number of ReadReq MSHR hits
system.cpu.dcache.WriteReq_mshr_hits::cpu.data        59472                       # number of WriteReq MSHR hits
system.cpu.dcache.WriteReq_mshr_hits::total        59472                       # number of WriteReq MSHR hits
system.cpu.dcache.LoadLockedReq_mshr_hits::cpu.data          179                       # number of LoadLockedReq MSHR hits
system.cpu.dcache.LoadLockedReq_mshr_hits::total          179                       # number of LoadLockedReq MSHR hits
system.cpu.dcache.demand_mshr_hits::cpu.data        78125                       # number of demand (read+write) MSHR hits
system.cpu.dcache.demand_mshr_hits::total        78125                       # number of demand (read+write) MSHR hits
system.cpu.dcache.overall_mshr_hits::cpu.data        78125                       # number of overall MSHR hits
system.cpu.dcache.overall_mshr_hits::total        78125                       # number of overall MSHR hits
system.cpu.dcache.ReadReq_mshr_misses::cpu.data         8277                       # number of ReadReq MSHR misses
system.cpu.dcache.ReadReq_mshr_misses::total         8277                       # number of ReadReq MSHR misses
system.cpu.dcache.WriteReq_mshr_misses::cpu.data         9098                       # number of WriteReq MSHR misses
system.cpu.dcache.WriteReq_mshr_misses::total         9098                       # number of WriteReq MSHR misses
system.cpu.dcache.LoadLockedReq_mshr_misses::cpu.data          220                       # number of LoadLockedReq MSHR misses
system.cpu.dcache.LoadLockedReq_mshr_misses::total          220                       # number of LoadLockedReq MSHR misses
system.cpu.dcache.demand_mshr_misses::cpu.data        17375                       # number of demand (read+write) MSHR misses
system.cpu.dcache.demand_mshr_misses::total        17375                       # number of demand (read+write) MSHR misses
system.cpu.dcache.overall_mshr_misses::cpu.data        17375                       # number of overall MSHR misses
system.cpu.dcache.overall_mshr_misses::total        17375                       # number of overall MSHR misses
system.cpu.dcache.ReadReq_mshr_miss_latency::cpu.data    558337950                       # number of ReadReq MSHR miss cycles
system.cpu.dcache.ReadReq_mshr_miss_latency::total    558337950                       # number of ReadReq MSHR miss cycles
system.cpu.dcache.WriteReq_mshr_miss_latency::cpu.data    624104490                       # number of WriteReq MSHR miss cycles
system.cpu.dcache.WriteReq_mshr_miss_latency::total    624104490                       # number of WriteReq MSHR miss cycles
system.cpu.dcache.LoadLockedReq_mshr_miss_latency::cpu.data     14958000                       # number of LoadLockedReq MSHR miss cycles
system.cpu.dcache.LoadLockedReq_mshr_miss_latency::total     14958000                       # number of LoadLockedReq MSHR miss cycles
system.cpu.dcache.demand_mshr_miss_latency::cpu.data   1182442440                       # number of demand (read+write) MSHR miss cycles
system.cpu.dcache.demand_mshr_miss_latency::total   1182442440                       # number of demand (read+write) MSHR miss cycles
system.cpu.dcache.overall_mshr_miss_latency::cpu.data   1182442440                       # number of overall MSHR miss cycles
system.cpu.dcache.overall_mshr_miss_latency::total   1182442440                       # number of overall MSHR miss cycles
system.cpu.dcache.WriteReq_mshr_uncacheable_latency::cpu.data      1058550                       # number of WriteReq MSHR uncacheable cycles
system.cpu.dcache.WriteReq_mshr_uncacheable_latency::total      1058550                       # number of WriteReq MSHR uncacheable cycles
system.cpu.dcache.overall_mshr_uncacheable_latency::cpu.data      1058550                       # number of overall MSHR uncacheable cycles
system.cpu.dcache.overall_mshr_uncacheable_latency::total      1058550                       # number of overall MSHR uncacheable cycles
system.cpu.dcache.ReadReq_mshr_miss_rate::cpu.data     0.052573                       # mshr miss rate for ReadReq accesses
system.cpu.dcache.ReadReq_mshr_miss_rate::total     0.052573                       # mshr miss rate for ReadReq accesses
system.cpu.dcache.WriteReq_mshr_miss_rate::cpu.data     0.069407                       # mshr miss rate for WriteReq accesses
system.cpu.dcache.WriteReq_mshr_miss_rate::total     0.069407                       # mshr miss rate for WriteReq accesses
system.cpu.dcache.LoadLockedReq_mshr_miss_rate::cpu.data     0.080586                       # mshr miss rate for LoadLockedReq accesses
system.cpu.dcache.LoadLockedReq_mshr_miss_rate::total     0.080586                       # mshr miss rate for LoadLockedReq accesses
system.cpu.dcache.demand_mshr_miss_rate::cpu.data     0.060221                       # mshr miss rate for demand accesses
system.cpu.dcache.demand_mshr_miss_rate::total     0.060221                       # mshr miss rate for demand accesses
system.cpu.dcache.overall_mshr_miss_rate::cpu.data     0.060221                       # mshr miss rate for overall accesses
system.cpu.dcache.overall_mshr_miss_rate::total     0.060221                       # mshr miss rate for overall accesses
system.cpu.dcache.ReadReq_avg_mshr_miss_latency::cpu.data 67456.560348                       # average ReadReq mshr miss latency
system.cpu.dcache.ReadReq_avg_mshr_miss_latency::total 67456.560348                       # average ReadReq mshr miss latency
system.cpu.dcache.WriteReq_avg_mshr_miss_latency::cpu.data 68597.987470                       # average WriteReq mshr miss latency
system.cpu.dcache.WriteReq_avg_mshr_miss_latency::total 68597.987470                       # average WriteReq mshr miss latency
system.cpu.dcache.LoadLockedReq_avg_mshr_miss_latency::cpu.data 67990.909091                       # average LoadLockedReq mshr miss latency
system.cpu.dcache.LoadLockedReq_avg_mshr_miss_latency::total 67990.909091                       # average LoadLockedReq mshr miss latency
system.cpu.dcache.demand_avg_mshr_miss_latency::cpu.data 68054.241151                       # average overall mshr miss latency
system.cpu.dcache.demand_avg_mshr_miss_latency::total 68054.241151                       # average overall mshr miss latency
system.cpu.dcache.overall_avg_mshr_miss_latency::cpu.data 68054.241151                       # average overall mshr miss latency
system.cpu.dcache.overall_avg_mshr_miss_latency::total 68054.241151                       # average overall mshr miss latency
system.cpu.dcache.WriteReq_avg_mshr_uncacheable_latency::cpu.data          inf                       # average WriteReq mshr uncacheable latency
system.cpu.dcache.WriteReq_avg_mshr_uncacheable_latency::total          inf                       # average WriteReq mshr uncacheable latency
system.cpu.dcache.overall_avg_mshr_uncacheable_latency::cpu.data          inf                       # average overall mshr uncacheable latency
system.cpu.dcache.overall_avg_mshr_uncacheable_latency::total          inf                       # average overall mshr uncacheable latency
system.cpu.dcache.no_allocate_misses                0                       # Number of misses that were no-allocate
system.cpu.kern.inst.arm                            0                       # number of arm instructions executed
system.cpu.kern.inst.quiesce                        0                       # number of quiesce instructions executed
system.cpu.kern.inst.hwrei                       2738                       # number of hwrei instructions executed
system.cpu.kern.ipl_count::0                      560     46.74%     46.74% # number of times we switched to this ipl
system.cpu.kern.ipl_count::22                       5      0.42%     47.16% # number of times we switched to this ipl
system.cpu.kern.ipl_count::31                     633     52.84%    100.00% # number of times we switched to this ipl
system.cpu.kern.ipl_count::total                 1198                       # number of times we switched to this ipl
system.cpu.kern.ipl_good::0                       558     49.78%     49.78% # number of times we switched to this ipl from a different ipl
system.cpu.kern.ipl_good::22                        5      0.45%     50.22% # number of times we switched to this ipl from a different ipl
system.cpu.kern.ipl_good::31                      558     49.78%    100.00% # number of times we switched to this ipl from a different ipl
system.cpu.kern.ipl_good::total                  1121                       # number of times we switched to this ipl from a different ipl
system.cpu.kern.ipl_ticks::0               4198543250     88.75%     88.75% # number of cycles we spent at this ipl
system.cpu.kern.ipl_ticks::22                 7006000      0.15%     88.89% # number of cycles we spent at this ipl
system.cpu.kern.ipl_ticks::31               525461300     11.11%    100.00% # number of cycles we spent at this ipl
system.cpu.kern.ipl_ticks::total           4731010550                       # number of cycles we spent at this ipl
system.cpu.kern.ipl_used::0                  0.996429                       # fraction of swpipl calls that actually changed the ipl
system.cpu.kern.ipl_used::22                        1                       # fraction of swpipl calls that actually changed the ipl
system.cpu.kern.ipl_used::31                 0.881517                       # fraction of swpipl calls that actually changed the ipl
system.cpu.kern.ipl_used::total              0.935726                       # fraction of swpipl calls that actually changed the ipl
system.cpu.kern.syscall::2                          1      5.88%      5.88% # number of syscalls executed
system.cpu.kern.syscall::3                          2     11.76%     17.65% # number of syscalls executed
system.cpu.kern.syscall::6                          2     11.76%     29.41% # number of syscalls executed
system.cpu.kern.syscall::17                         1      5.88%     35.29% # number of syscalls executed
system.cpu.kern.syscall::33                         1      5.88%     41.18% # number of syscalls executed
system.cpu.kern.syscall::45                         3     17.65%     58.82% # number of syscalls executed
system.cpu.kern.syscall::48                         1      5.88%     64.71% # number of syscalls executed
system.cpu.kern.syscall::59                         1      5.88%     70.59% # number of syscalls executed
system.cpu.kern.syscall::71                         4     23.53%     94.12% # number of syscalls executed
system.cpu.kern.syscall::74                         1      5.88%    100.00% # number of syscalls executed
system.cpu.kern.syscall::total                     17                       # number of syscalls executed
system.cpu.kern.callpal::swpctx                   121      8.83%      8.83% # number of callpals executed
system.cpu.kern.callpal::tbi                        6      0.44%      9.26% # number of callpals executed
system.cpu.kern.callpal::swpipl                  1001     73.01%     82.28% # number of callpals executed
system.cpu.kern.callpal::rdps                      11      0.80%     83.08% # number of callpals executed
system.cpu.kern.callpal::wrusp                      1      0.07%     83.15% # number of callpals executed
system.cpu.kern.callpal::rdusp                      1      0.07%     83.22% # number of callpals executed
system.cpu.kern.callpal::rti                      192     14.00%     97.23% # number of callpals executed
system.cpu.kern.callpal::callsys                   34      2.48%     99.71% # number of callpals executed
system.cpu.kern.callpal::imb                        4      0.29%    100.00% # number of callpals executed
system.cpu.kern.callpal::total                   1371                       # number of callpals executed
system.cpu.kern.mode_switch::kernel               313                       # number of protection mode switches
system.cpu.kern.mode_switch::user                 187                       # number of protection mode switches
system.cpu.kern.mode_switch::idle                   0                       # number of protection mode switches
system.cpu.kern.mode_good::kernel                 187                      
system.cpu.kern.mode_good::user                   187                      
system.cpu.kern.mode_good::idle                     0                      
system.cpu.kern.mode_switch_good::kernel     0.597444                       # fraction of useful protection mode switches
system.cpu.kern.mode_switch_good::user              1                       # fraction of useful protection mode switches
system.cpu.kern.mode_switch_good::idle            nan                       # fraction of useful protection mode switches
system.cpu.kern.mode_switch_good::total      0.748000                       # fraction of useful protection mode switches
system.cpu.kern.mode_ticks::kernel         2929451550     61.92%     61.92% # number of ticks spent at the given mode
system.cpu.kern.mode_ticks::user           1801559000     38.08%    100.00% # number of ticks spent at the given mode
system.cpu.kern.mode_ticks::idle                    0      0.00%    100.00% # number of ticks spent at the given mode
system.cpu.kern.swap_context                      121                       # number of times the context was actually changed

---------- End Simulation Statistics   ----------
