
---------- Begin Simulation Statistics ----------
sim_seconds                                  4.744747                       # Number of seconds simulated
sim_ticks                                4744746616221                       # Number of ticks simulated
final_tick                               4744746616221                       # Number of ticks from beginning of simulation (restored from checkpoints and never reset)
sim_freq                                 1000000000000                       # Frequency of simulated ticks
host_inst_rate                                1703162                       # Simulator instruction rate (inst/s)
host_op_rate                                  4337052                       # Simulator op (including micro ops) rate (op/s)
host_tick_rate                            24726540023                       # Simulator tick rate (ticks/s)
host_mem_usage                                 947508                       # Number of bytes of host memory used
host_seconds                                   191.89                       # Real time elapsed on the host
sim_insts                                   326817762                       # Number of instructions simulated
sim_ops                                     832231702                       # Number of ops (including micro ops) simulated
system.voltage_domain.voltage                       1                       # Voltage in Volts
system.clk_domain.clock                          1000                       # Clock period in ticks
system.mem_ctrls.bytes_read::pc.south_bridge.ide        36032                       # Number of bytes read from this memory
system.mem_ctrls.bytes_read::cpu0.dtb.walker        10752                       # Number of bytes read from this memory
system.mem_ctrls.bytes_read::cpu0.itb.walker        11648                       # Number of bytes read from this memory
system.mem_ctrls.bytes_read::cpu0.inst       19503040                       # Number of bytes read from this memory
system.mem_ctrls.bytes_read::cpu0.data       83935744                       # Number of bytes read from this memory
system.mem_ctrls.bytes_read::cpu1.dtb.walker         5504                       # Number of bytes read from this memory
system.mem_ctrls.bytes_read::cpu1.itb.walker         4416                       # Number of bytes read from this memory
system.mem_ctrls.bytes_read::cpu1.inst       14553984                       # Number of bytes read from this memory
system.mem_ctrls.bytes_read::cpu1.data        9282816                       # Number of bytes read from this memory
system.mem_ctrls.bytes_read::cpu2.dtb.walker        65856                       # Number of bytes read from this memory
system.mem_ctrls.bytes_read::cpu2.itb.walker        89280                       # Number of bytes read from this memory
system.mem_ctrls.bytes_read::cpu2.inst       18818624                       # Number of bytes read from this memory
system.mem_ctrls.bytes_read::cpu2.data        5427008                       # Number of bytes read from this memory
system.mem_ctrls.bytes_read::cpu3.dtb.walker       121920                       # Number of bytes read from this memory
system.mem_ctrls.bytes_read::cpu3.itb.walker       166592                       # Number of bytes read from this memory
system.mem_ctrls.bytes_read::cpu3.inst        6377728                       # Number of bytes read from this memory
system.mem_ctrls.bytes_read::cpu3.data        4234432                       # Number of bytes read from this memory
system.mem_ctrls.bytes_read::total          162645376                       # Number of bytes read from this memory
system.mem_ctrls.bytes_inst_read::cpu0.inst     19503040                       # Number of instructions bytes read from this memory
system.mem_ctrls.bytes_inst_read::cpu1.inst     14553984                       # Number of instructions bytes read from this memory
system.mem_ctrls.bytes_inst_read::cpu2.inst     18818624                       # Number of instructions bytes read from this memory
system.mem_ctrls.bytes_inst_read::cpu3.inst      6377728                       # Number of instructions bytes read from this memory
system.mem_ctrls.bytes_inst_read::total      59253376                       # Number of instructions bytes read from this memory
system.mem_ctrls.bytes_written::writebacks     35497280                       # Number of bytes written to this memory
system.mem_ctrls.bytes_written::pc.south_bridge.ide      2661376                       # Number of bytes written to this memory
system.mem_ctrls.bytes_written::total        38158656                       # Number of bytes written to this memory
system.mem_ctrls.num_reads::pc.south_bridge.ide          563                       # Number of read requests responded to by this memory
system.mem_ctrls.num_reads::cpu0.dtb.walker          168                       # Number of read requests responded to by this memory
system.mem_ctrls.num_reads::cpu0.itb.walker          182                       # Number of read requests responded to by this memory
system.mem_ctrls.num_reads::cpu0.inst          304735                       # Number of read requests responded to by this memory
system.mem_ctrls.num_reads::cpu0.data         1311496                       # Number of read requests responded to by this memory
system.mem_ctrls.num_reads::cpu1.dtb.walker           86                       # Number of read requests responded to by this memory
system.mem_ctrls.num_reads::cpu1.itb.walker           69                       # Number of read requests responded to by this memory
system.mem_ctrls.num_reads::cpu1.inst          227406                       # Number of read requests responded to by this memory
system.mem_ctrls.num_reads::cpu1.data          145044                       # Number of read requests responded to by this memory
system.mem_ctrls.num_reads::cpu2.dtb.walker         1029                       # Number of read requests responded to by this memory
system.mem_ctrls.num_reads::cpu2.itb.walker         1395                       # Number of read requests responded to by this memory
system.mem_ctrls.num_reads::cpu2.inst          294041                       # Number of read requests responded to by this memory
system.mem_ctrls.num_reads::cpu2.data           84797                       # Number of read requests responded to by this memory
system.mem_ctrls.num_reads::cpu3.dtb.walker         1905                       # Number of read requests responded to by this memory
system.mem_ctrls.num_reads::cpu3.itb.walker         2603                       # Number of read requests responded to by this memory
system.mem_ctrls.num_reads::cpu3.inst           99652                       # Number of read requests responded to by this memory
system.mem_ctrls.num_reads::cpu3.data           66163                       # Number of read requests responded to by this memory
system.mem_ctrls.num_reads::total             2541334                       # Number of read requests responded to by this memory
system.mem_ctrls.num_writes::writebacks        554645                       # Number of write requests responded to by this memory
system.mem_ctrls.num_writes::pc.south_bridge.ide        41584                       # Number of write requests responded to by this memory
system.mem_ctrls.num_writes::total             596229                       # Number of write requests responded to by this memory
system.mem_ctrls.bw_read::pc.south_bridge.ide         7594                       # Total read bandwidth from this memory (bytes/s)
system.mem_ctrls.bw_read::cpu0.dtb.walker         2266                       # Total read bandwidth from this memory (bytes/s)
system.mem_ctrls.bw_read::cpu0.itb.walker         2455                       # Total read bandwidth from this memory (bytes/s)
system.mem_ctrls.bw_read::cpu0.inst           4110449                       # Total read bandwidth from this memory (bytes/s)
system.mem_ctrls.bw_read::cpu0.data          17690248                       # Total read bandwidth from this memory (bytes/s)
system.mem_ctrls.bw_read::cpu1.dtb.walker         1160                       # Total read bandwidth from this memory (bytes/s)
system.mem_ctrls.bw_read::cpu1.itb.walker          931                       # Total read bandwidth from this memory (bytes/s)
system.mem_ctrls.bw_read::cpu1.inst           3067389                       # Total read bandwidth from this memory (bytes/s)
system.mem_ctrls.bw_read::cpu1.data           1956441                       # Total read bandwidth from this memory (bytes/s)
system.mem_ctrls.bw_read::cpu2.dtb.walker        13880                       # Total read bandwidth from this memory (bytes/s)
system.mem_ctrls.bw_read::cpu2.itb.walker        18817                       # Total read bandwidth from this memory (bytes/s)
system.mem_ctrls.bw_read::cpu2.inst           3966202                       # Total read bandwidth from this memory (bytes/s)
system.mem_ctrls.bw_read::cpu2.data           1143793                       # Total read bandwidth from this memory (bytes/s)
system.mem_ctrls.bw_read::cpu3.dtb.walker        25696                       # Total read bandwidth from this memory (bytes/s)
system.mem_ctrls.bw_read::cpu3.itb.walker        35111                       # Total read bandwidth from this memory (bytes/s)
system.mem_ctrls.bw_read::cpu3.inst           1344166                       # Total read bandwidth from this memory (bytes/s)
system.mem_ctrls.bw_read::cpu3.data            892446                       # Total read bandwidth from this memory (bytes/s)
system.mem_ctrls.bw_read::total              34279044                       # Total read bandwidth from this memory (bytes/s)
system.mem_ctrls.bw_inst_read::cpu0.inst      4110449                       # Instruction read bandwidth from this memory (bytes/s)
system.mem_ctrls.bw_inst_read::cpu1.inst      3067389                       # Instruction read bandwidth from this memory (bytes/s)
system.mem_ctrls.bw_inst_read::cpu2.inst      3966202                       # Instruction read bandwidth from this memory (bytes/s)
system.mem_ctrls.bw_inst_read::cpu3.inst      1344166                       # Instruction read bandwidth from this memory (bytes/s)
system.mem_ctrls.bw_inst_read::total         12488207                       # Instruction read bandwidth from this memory (bytes/s)
system.mem_ctrls.bw_write::writebacks         7481386                       # Write bandwidth from this memory (bytes/s)
system.mem_ctrls.bw_write::pc.south_bridge.ide       560910                       # Write bandwidth from this memory (bytes/s)
system.mem_ctrls.bw_write::total              8042296                       # Write bandwidth from this memory (bytes/s)
system.mem_ctrls.bw_total::writebacks         7481386                       # Total bandwidth to/from this memory (bytes/s)
system.mem_ctrls.bw_total::pc.south_bridge.ide       568504                       # Total bandwidth to/from this memory (bytes/s)
system.mem_ctrls.bw_total::cpu0.dtb.walker         2266                       # Total bandwidth to/from this memory (bytes/s)
system.mem_ctrls.bw_total::cpu0.itb.walker         2455                       # Total bandwidth to/from this memory (bytes/s)
system.mem_ctrls.bw_total::cpu0.inst          4110449                       # Total bandwidth to/from this memory (bytes/s)
system.mem_ctrls.bw_total::cpu0.data         17690248                       # Total bandwidth to/from this memory (bytes/s)
system.mem_ctrls.bw_total::cpu1.dtb.walker         1160                       # Total bandwidth to/from this memory (bytes/s)
system.mem_ctrls.bw_total::cpu1.itb.walker          931                       # Total bandwidth to/from this memory (bytes/s)
system.mem_ctrls.bw_total::cpu1.inst          3067389                       # Total bandwidth to/from this memory (bytes/s)
system.mem_ctrls.bw_total::cpu1.data          1956441                       # Total bandwidth to/from this memory (bytes/s)
system.mem_ctrls.bw_total::cpu2.dtb.walker        13880                       # Total bandwidth to/from this memory (bytes/s)
system.mem_ctrls.bw_total::cpu2.itb.walker        18817                       # Total bandwidth to/from this memory (bytes/s)
system.mem_ctrls.bw_total::cpu2.inst          3966202                       # Total bandwidth to/from this memory (bytes/s)
system.mem_ctrls.bw_total::cpu2.data          1143793                       # Total bandwidth to/from this memory (bytes/s)
system.mem_ctrls.bw_total::cpu3.dtb.walker        25696                       # Total bandwidth to/from this memory (bytes/s)
system.mem_ctrls.bw_total::cpu3.itb.walker        35111                       # Total bandwidth to/from this memory (bytes/s)
system.mem_ctrls.bw_total::cpu3.inst          1344166                       # Total bandwidth to/from this memory (bytes/s)
system.mem_ctrls.bw_total::cpu3.data           892446                       # Total bandwidth to/from this memory (bytes/s)
system.mem_ctrls.bw_total::total             42321339                       # Total bandwidth to/from this memory (bytes/s)
system.mem_ctrls.readReqs                           0                       # Number of read requests accepted
system.mem_ctrls.writeReqs                          0                       # Number of write requests accepted
system.mem_ctrls.readBursts                         0                       # Number of DRAM read bursts, including those serviced by the write queue
system.mem_ctrls.writeBursts                        0                       # Number of DRAM write bursts, including those merged in the write queue
system.mem_ctrls.bytesReadDRAM                      0                       # Total number of bytes read from DRAM
system.mem_ctrls.bytesReadWrQ                       0                       # Total number of bytes read from write queue
system.mem_ctrls.bytesWritten                       0                       # Total number of bytes written to DRAM
system.mem_ctrls.bytesReadSys                       0                       # Total read bytes from the system interface side
system.mem_ctrls.bytesWrittenSys                    0                       # Total written bytes from the system interface side
system.mem_ctrls.servicedByWrQ                      0                       # Number of DRAM read bursts serviced by the write queue
system.mem_ctrls.mergedWrBursts                     0                       # Number of DRAM write bursts merged with an existing one
system.mem_ctrls.neitherReadNorWriteReqs            0                       # Number of requests that are neither read nor write
system.mem_ctrls.perBankRdBursts::0                 0                       # Per bank write bursts
system.mem_ctrls.perBankRdBursts::1                 0                       # Per bank write bursts
system.mem_ctrls.perBankRdBursts::2                 0                       # Per bank write bursts
system.mem_ctrls.perBankRdBursts::3                 0                       # Per bank write bursts
system.mem_ctrls.perBankRdBursts::4                 0                       # Per bank write bursts
system.mem_ctrls.perBankRdBursts::5                 0                       # Per bank write bursts
system.mem_ctrls.perBankRdBursts::6                 0                       # Per bank write bursts
system.mem_ctrls.perBankRdBursts::7                 0                       # Per bank write bursts
system.mem_ctrls.perBankRdBursts::8                 0                       # Per bank write bursts
system.mem_ctrls.perBankRdBursts::9                 0                       # Per bank write bursts
system.mem_ctrls.perBankRdBursts::10                0                       # Per bank write bursts
system.mem_ctrls.perBankRdBursts::11                0                       # Per bank write bursts
system.mem_ctrls.perBankRdBursts::12                0                       # Per bank write bursts
system.mem_ctrls.perBankRdBursts::13                0                       # Per bank write bursts
system.mem_ctrls.perBankRdBursts::14                0                       # Per bank write bursts
system.mem_ctrls.perBankRdBursts::15                0                       # Per bank write bursts
system.mem_ctrls.perBankWrBursts::0                 0                       # Per bank write bursts
system.mem_ctrls.perBankWrBursts::1                 0                       # Per bank write bursts
system.mem_ctrls.perBankWrBursts::2                 0                       # Per bank write bursts
system.mem_ctrls.perBankWrBursts::3                 0                       # Per bank write bursts
system.mem_ctrls.perBankWrBursts::4                 0                       # Per bank write bursts
system.mem_ctrls.perBankWrBursts::5                 0                       # Per bank write bursts
system.mem_ctrls.perBankWrBursts::6                 0                       # Per bank write bursts
system.mem_ctrls.perBankWrBursts::7                 0                       # Per bank write bursts
system.mem_ctrls.perBankWrBursts::8                 0                       # Per bank write bursts
system.mem_ctrls.perBankWrBursts::9                 0                       # Per bank write bursts
system.mem_ctrls.perBankWrBursts::10                0                       # Per bank write bursts
system.mem_ctrls.perBankWrBursts::11                0                       # Per bank write bursts
system.mem_ctrls.perBankWrBursts::12                0                       # Per bank write bursts
system.mem_ctrls.perBankWrBursts::13                0                       # Per bank write bursts
system.mem_ctrls.perBankWrBursts::14                0                       # Per bank write bursts
system.mem_ctrls.perBankWrBursts::15                0                       # Per bank write bursts
system.mem_ctrls.numRdRetry                         0                       # Number of times read queue was full causing retry
system.mem_ctrls.numWrRetry                         0                       # Number of times write queue was full causing retry
system.mem_ctrls.totGap                             0                       # Total gap between requests
system.mem_ctrls.readPktSize::0                     0                       # Read request sizes (log2)
system.mem_ctrls.readPktSize::1                     0                       # Read request sizes (log2)
system.mem_ctrls.readPktSize::2                     0                       # Read request sizes (log2)
system.mem_ctrls.readPktSize::3                     0                       # Read request sizes (log2)
system.mem_ctrls.readPktSize::4                     0                       # Read request sizes (log2)
system.mem_ctrls.readPktSize::5                     0                       # Read request sizes (log2)
system.mem_ctrls.readPktSize::6                     0                       # Read request sizes (log2)
system.mem_ctrls.writePktSize::0                    0                       # Write request sizes (log2)
system.mem_ctrls.writePktSize::1                    0                       # Write request sizes (log2)
system.mem_ctrls.writePktSize::2                    0                       # Write request sizes (log2)
system.mem_ctrls.writePktSize::3                    0                       # Write request sizes (log2)
system.mem_ctrls.writePktSize::4                    0                       # Write request sizes (log2)
system.mem_ctrls.writePktSize::5                    0                       # Write request sizes (log2)
system.mem_ctrls.writePktSize::6                    0                       # Write request sizes (log2)
system.mem_ctrls.rdQLenPdf::0                       0                       # What read queue length does an incoming req see
system.mem_ctrls.rdQLenPdf::1                       0                       # What read queue length does an incoming req see
system.mem_ctrls.rdQLenPdf::2                       0                       # What read queue length does an incoming req see
system.mem_ctrls.rdQLenPdf::3                       0                       # What read queue length does an incoming req see
system.mem_ctrls.rdQLenPdf::4                       0                       # What read queue length does an incoming req see
system.mem_ctrls.rdQLenPdf::5                       0                       # What read queue length does an incoming req see
system.mem_ctrls.rdQLenPdf::6                       0                       # What read queue length does an incoming req see
system.mem_ctrls.rdQLenPdf::7                       0                       # What read queue length does an incoming req see
system.mem_ctrls.rdQLenPdf::8                       0                       # What read queue length does an incoming req see
system.mem_ctrls.rdQLenPdf::9                       0                       # What read queue length does an incoming req see
system.mem_ctrls.rdQLenPdf::10                      0                       # What read queue length does an incoming req see
system.mem_ctrls.rdQLenPdf::11                      0                       # What read queue length does an incoming req see
system.mem_ctrls.rdQLenPdf::12                      0                       # What read queue length does an incoming req see
system.mem_ctrls.rdQLenPdf::13                      0                       # What read queue length does an incoming req see
system.mem_ctrls.rdQLenPdf::14                      0                       # What read queue length does an incoming req see
system.mem_ctrls.rdQLenPdf::15                      0                       # What read queue length does an incoming req see
system.mem_ctrls.rdQLenPdf::16                      0                       # What read queue length does an incoming req see
system.mem_ctrls.rdQLenPdf::17                      0                       # What read queue length does an incoming req see
system.mem_ctrls.rdQLenPdf::18                      0                       # What read queue length does an incoming req see
system.mem_ctrls.rdQLenPdf::19                      0                       # What read queue length does an incoming req see
system.mem_ctrls.rdQLenPdf::20                      0                       # What read queue length does an incoming req see
system.mem_ctrls.rdQLenPdf::21                      0                       # What read queue length does an incoming req see
system.mem_ctrls.rdQLenPdf::22                      0                       # What read queue length does an incoming req see
system.mem_ctrls.rdQLenPdf::23                      0                       # What read queue length does an incoming req see
system.mem_ctrls.rdQLenPdf::24                      0                       # What read queue length does an incoming req see
system.mem_ctrls.rdQLenPdf::25                      0                       # What read queue length does an incoming req see
system.mem_ctrls.rdQLenPdf::26                      0                       # What read queue length does an incoming req see
system.mem_ctrls.rdQLenPdf::27                      0                       # What read queue length does an incoming req see
system.mem_ctrls.rdQLenPdf::28                      0                       # What read queue length does an incoming req see
system.mem_ctrls.rdQLenPdf::29                      0                       # What read queue length does an incoming req see
system.mem_ctrls.rdQLenPdf::30                      0                       # What read queue length does an incoming req see
system.mem_ctrls.rdQLenPdf::31                      0                       # What read queue length does an incoming req see
system.mem_ctrls.wrQLenPdf::0                       0                       # What write queue length does an incoming req see
system.mem_ctrls.wrQLenPdf::1                       0                       # What write queue length does an incoming req see
system.mem_ctrls.wrQLenPdf::2                       0                       # What write queue length does an incoming req see
system.mem_ctrls.wrQLenPdf::3                       0                       # What write queue length does an incoming req see
system.mem_ctrls.wrQLenPdf::4                       0                       # What write queue length does an incoming req see
system.mem_ctrls.wrQLenPdf::5                       0                       # What write queue length does an incoming req see
system.mem_ctrls.wrQLenPdf::6                       0                       # What write queue length does an incoming req see
system.mem_ctrls.wrQLenPdf::7                       0                       # What write queue length does an incoming req see
system.mem_ctrls.wrQLenPdf::8                       0                       # What write queue length does an incoming req see
system.mem_ctrls.wrQLenPdf::9                       0                       # What write queue length does an incoming req see
system.mem_ctrls.wrQLenPdf::10                      0                       # What write queue length does an incoming req see
system.mem_ctrls.wrQLenPdf::11                      0                       # What write queue length does an incoming req see
system.mem_ctrls.wrQLenPdf::12                      0                       # What write queue length does an incoming req see
system.mem_ctrls.wrQLenPdf::13                      0                       # What write queue length does an incoming req see
system.mem_ctrls.wrQLenPdf::14                      0                       # What write queue length does an incoming req see
system.mem_ctrls.wrQLenPdf::15                      0                       # What write queue length does an incoming req see
system.mem_ctrls.wrQLenPdf::16                      0                       # What write queue length does an incoming req see
system.mem_ctrls.wrQLenPdf::17                      0                       # What write queue length does an incoming req see
system.mem_ctrls.wrQLenPdf::18                      0                       # What write queue length does an incoming req see
system.mem_ctrls.wrQLenPdf::19                      0                       # What write queue length does an incoming req see
system.mem_ctrls.wrQLenPdf::20                      0                       # What write queue length does an incoming req see
system.mem_ctrls.wrQLenPdf::21                      0                       # What write queue length does an incoming req see
system.mem_ctrls.wrQLenPdf::22                      0                       # What write queue length does an incoming req see
system.mem_ctrls.wrQLenPdf::23                      0                       # What write queue length does an incoming req see
system.mem_ctrls.wrQLenPdf::24                      0                       # What write queue length does an incoming req see
system.mem_ctrls.wrQLenPdf::25                      0                       # What write queue length does an incoming req see
system.mem_ctrls.wrQLenPdf::26                      0                       # What write queue length does an incoming req see
system.mem_ctrls.wrQLenPdf::27                      0                       # What write queue length does an incoming req see
system.mem_ctrls.wrQLenPdf::28                      0                       # What write queue length does an incoming req see
system.mem_ctrls.wrQLenPdf::29                      0                       # What write queue length does an incoming req see
system.mem_ctrls.wrQLenPdf::30                      0                       # What write queue length does an incoming req see
system.mem_ctrls.wrQLenPdf::31                      0                       # What write queue length does an incoming req see
system.mem_ctrls.wrQLenPdf::32                      0                       # What write queue length does an incoming req see
system.mem_ctrls.wrQLenPdf::33                      0                       # What write queue length does an incoming req see
system.mem_ctrls.wrQLenPdf::34                      0                       # What write queue length does an incoming req see
system.mem_ctrls.wrQLenPdf::35                      0                       # What write queue length does an incoming req see
system.mem_ctrls.wrQLenPdf::36                      0                       # What write queue length does an incoming req see
system.mem_ctrls.wrQLenPdf::37                      0                       # What write queue length does an incoming req see
system.mem_ctrls.wrQLenPdf::38                      0                       # What write queue length does an incoming req see
system.mem_ctrls.wrQLenPdf::39                      0                       # What write queue length does an incoming req see
system.mem_ctrls.wrQLenPdf::40                      0                       # What write queue length does an incoming req see
system.mem_ctrls.wrQLenPdf::41                      0                       # What write queue length does an incoming req see
system.mem_ctrls.wrQLenPdf::42                      0                       # What write queue length does an incoming req see
system.mem_ctrls.wrQLenPdf::43                      0                       # What write queue length does an incoming req see
system.mem_ctrls.wrQLenPdf::44                      0                       # What write queue length does an incoming req see
system.mem_ctrls.wrQLenPdf::45                      0                       # What write queue length does an incoming req see
system.mem_ctrls.wrQLenPdf::46                      0                       # What write queue length does an incoming req see
system.mem_ctrls.wrQLenPdf::47                      0                       # What write queue length does an incoming req see
system.mem_ctrls.wrQLenPdf::48                      0                       # What write queue length does an incoming req see
system.mem_ctrls.wrQLenPdf::49                      0                       # What write queue length does an incoming req see
system.mem_ctrls.wrQLenPdf::50                      0                       # What write queue length does an incoming req see
system.mem_ctrls.wrQLenPdf::51                      0                       # What write queue length does an incoming req see
system.mem_ctrls.wrQLenPdf::52                      0                       # What write queue length does an incoming req see
system.mem_ctrls.wrQLenPdf::53                      0                       # What write queue length does an incoming req see
system.mem_ctrls.wrQLenPdf::54                      0                       # What write queue length does an incoming req see
system.mem_ctrls.wrQLenPdf::55                      0                       # What write queue length does an incoming req see
system.mem_ctrls.wrQLenPdf::56                      0                       # What write queue length does an incoming req see
system.mem_ctrls.wrQLenPdf::57                      0                       # What write queue length does an incoming req see
system.mem_ctrls.wrQLenPdf::58                      0                       # What write queue length does an incoming req see
system.mem_ctrls.wrQLenPdf::59                      0                       # What write queue length does an incoming req see
system.mem_ctrls.wrQLenPdf::60                      0                       # What write queue length does an incoming req see
system.mem_ctrls.wrQLenPdf::61                      0                       # What write queue length does an incoming req see
system.mem_ctrls.wrQLenPdf::62                      0                       # What write queue length does an incoming req see
system.mem_ctrls.wrQLenPdf::63                      0                       # What write queue length does an incoming req see
system.mem_ctrls.totQLat                            0                       # Total ticks spent queuing
system.mem_ctrls.totMemAccLat                       0                       # Total ticks spent from burst creation until serviced by the DRAM
system.mem_ctrls.totBusLat                          0                       # Total ticks spent in databus transfers
system.mem_ctrls.avgQLat                          nan                       # Average queueing delay per DRAM burst
system.mem_ctrls.avgBusLat                        nan                       # Average bus latency per DRAM burst
system.mem_ctrls.avgMemAccLat                     nan                       # Average memory access latency per DRAM burst
system.mem_ctrls.avgRdBW                         0.00                       # Average DRAM read bandwidth in MiByte/s
system.mem_ctrls.avgWrBW                         0.00                       # Average achieved write bandwidth in MiByte/s
system.mem_ctrls.avgRdBWSys                      0.00                       # Average system read bandwidth in MiByte/s
system.mem_ctrls.avgWrBWSys                      0.00                       # Average system write bandwidth in MiByte/s
system.mem_ctrls.peakBW                      12800.00                       # Theoretical peak bandwidth in MiByte/s
system.mem_ctrls.busUtil                         0.00                       # Data bus utilization in percentage
system.mem_ctrls.busUtilRead                     0.00                       # Data bus utilization in percentage for reads
system.mem_ctrls.busUtilWrite                    0.00                       # Data bus utilization in percentage for writes
system.mem_ctrls.avgRdQLen                       0.00                       # Average read queue length when enqueuing
system.mem_ctrls.avgWrQLen                       0.00                       # Average write queue length when enqueuing
system.mem_ctrls.readRowHits                        0                       # Number of row buffer hits during reads
system.mem_ctrls.writeRowHits                       0                       # Number of row buffer hits during writes
system.mem_ctrls.readRowHitRate                   nan                       # Row buffer hit rate for reads
system.mem_ctrls.writeRowHitRate                  nan                       # Row buffer hit rate for writes
system.mem_ctrls.avgGap                           nan                       # Average gap between requests
system.mem_ctrls.pageHitRate                      nan                       # Row buffer hit rate, read and write combined
system.mem_ctrls.memoryStateTime::IDLE   4586308853750                       # Time in different power states
system.mem_ctrls.memoryStateTime::REF    158437500000                       # Time in different power states
system.mem_ctrls.memoryStateTime::PRE_PDN            0                       # Time in different power states
system.mem_ctrls.memoryStateTime::ACT               0                       # Time in different power states
system.mem_ctrls.memoryStateTime::ACT_PDN            0                       # Time in different power states
system.mem_ctrls.actEnergy::0                       0                       # Energy for activate commands per rank (pJ)
system.mem_ctrls.actEnergy::1                       0                       # Energy for activate commands per rank (pJ)
system.mem_ctrls.preEnergy::0                       0                       # Energy for precharge commands per rank (pJ)
system.mem_ctrls.preEnergy::1                       0                       # Energy for precharge commands per rank (pJ)
system.mem_ctrls.readEnergy::0                      0                       # Energy for read commands per rank (pJ)
system.mem_ctrls.readEnergy::1                      0                       # Energy for read commands per rank (pJ)
system.mem_ctrls.writeEnergy::0                     0                       # Energy for write commands per rank (pJ)
system.mem_ctrls.writeEnergy::1                     0                       # Energy for write commands per rank (pJ)
system.mem_ctrls.refreshEnergy::0        309903750000                       # Energy for refresh commands per rank (pJ)
system.mem_ctrls.refreshEnergy::1        309903750000                       # Energy for refresh commands per rank (pJ)
system.mem_ctrls.actBackEnergy::0        102640078125                       # Energy for active background per rank (pJ)
system.mem_ctrls.actBackEnergy::1        102640078125                       # Energy for active background per rank (pJ)
system.mem_ctrls.preBackEnergy::0        2756812647750                       # Energy for precharge background per rank (pJ)
system.mem_ctrls.preBackEnergy::1        2756812647750                       # Energy for precharge background per rank (pJ)
system.mem_ctrls.totalEnergy::0          3169356475875                       # Total energy per rank (pJ)
system.mem_ctrls.totalEnergy::1          3169356475875                       # Total energy per rank (pJ)
system.mem_ctrls.averagePower::0           667.971742                       # Core power per rank (mW)
system.mem_ctrls.averagePower::1           667.971742                       # Core power per rank (mW)
system.membus.trans_dist::ReadReq             6797405                       # Transaction distribution
system.membus.trans_dist::ReadResp            6797405                       # Transaction distribution
system.membus.trans_dist::WriteReq              29094                       # Transaction distribution
system.membus.trans_dist::WriteResp             29094                       # Transaction distribution
system.membus.trans_dist::Writeback            554645                       # Transaction distribution
system.membus.trans_dist::WriteInvalidateReq        41584                       # Transaction distribution
system.membus.trans_dist::WriteInvalidateResp        41584                       # Transaction distribution
system.membus.trans_dist::UpgradeReq           195636                       # Transaction distribution
system.membus.trans_dist::UpgradeResp          195636                       # Transaction distribution
system.membus.trans_dist::ReadExReq            446667                       # Transaction distribution
system.membus.trans_dist::ReadExResp           446667                       # Transaction distribution
system.membus.trans_dist::MessageReq             4600                       # Transaction distribution
system.membus.trans_dist::MessageResp            4600                       # Transaction distribution
system.membus.pkt_count_system.apicbridge.master::system.cpu0.interrupts.int_slave          322                       # Packet count per connected master and slave (bytes)
system.membus.pkt_count_system.apicbridge.master::system.cpu1.interrupts.int_slave          194                       # Packet count per connected master and slave (bytes)
system.membus.pkt_count_system.apicbridge.master::system.cpu2.interrupts.int_slave          194                       # Packet count per connected master and slave (bytes)
system.membus.pkt_count_system.apicbridge.master::system.cpu3.interrupts.int_slave          196                       # Packet count per connected master and slave (bytes)
system.membus.pkt_count_system.apicbridge.master::total          906                       # Packet count per connected master and slave (bytes)
system.membus.pkt_count_system.iocache.mem_side::system.mem_ctrls.port        85540                       # Packet count per connected master and slave (bytes)
system.membus.pkt_count_system.iocache.mem_side::total        85540                       # Packet count per connected master and slave (bytes)
system.membus.pkt_count_system.cpu0.icache.mem_side::system.mem_ctrls.port       609474                       # Packet count per connected master and slave (bytes)
system.membus.pkt_count_system.cpu0.icache.mem_side::total       609474                       # Packet count per connected master and slave (bytes)
system.membus.pkt_count_system.cpu0.dcache.mem_side::system.bridge.slave      8755368                       # Packet count per connected master and slave (bytes)
system.membus.pkt_count_system.cpu0.dcache.mem_side::system.cpu0.interrupts.pio        10880                       # Packet count per connected master and slave (bytes)
system.membus.pkt_count_system.cpu0.dcache.mem_side::system.mem_ctrls.port      3188343                       # Packet count per connected master and slave (bytes)
system.membus.pkt_count_system.cpu0.dcache.mem_side::total     11954591                       # Packet count per connected master and slave (bytes)
system.membus.pkt_count_system.cpu0.itb_walker_cache.mem_side::system.mem_ctrls.port          446                       # Packet count per connected master and slave (bytes)
system.membus.pkt_count_system.cpu0.itb_walker_cache.mem_side::total          446                       # Packet count per connected master and slave (bytes)
system.membus.pkt_count_system.cpu0.dtb_walker_cache.mem_side::system.mem_ctrls.port          416                       # Packet count per connected master and slave (bytes)
system.membus.pkt_count_system.cpu0.dtb_walker_cache.mem_side::total          416                       # Packet count per connected master and slave (bytes)
system.membus.pkt_count_system.cpu0.interrupts.int_master::system.cpu1.interrupts.int_slave         1968                       # Packet count per connected master and slave (bytes)
system.membus.pkt_count_system.cpu0.interrupts.int_master::system.cpu2.interrupts.int_slave          174                       # Packet count per connected master and slave (bytes)
system.membus.pkt_count_system.cpu0.interrupts.int_master::system.cpu3.interrupts.int_slave          182                       # Packet count per connected master and slave (bytes)
system.membus.pkt_count_system.cpu0.interrupts.int_master::total         2324                       # Packet count per connected master and slave (bytes)
system.membus.pkt_count_system.cpu1.icache.mem_side::system.mem_ctrls.port       454828                       # Packet count per connected master and slave (bytes)
system.membus.pkt_count_system.cpu1.icache.mem_side::total       454828                       # Packet count per connected master and slave (bytes)
system.membus.pkt_count_system.cpu1.dcache.mem_side::system.bridge.slave         4268                       # Packet count per connected master and slave (bytes)
system.membus.pkt_count_system.cpu1.dcache.mem_side::system.cpu1.interrupts.pio        17968                       # Packet count per connected master and slave (bytes)
system.membus.pkt_count_system.cpu1.dcache.mem_side::system.mem_ctrls.port       687956                       # Packet count per connected master and slave (bytes)
system.membus.pkt_count_system.cpu1.dcache.mem_side::total       710192                       # Packet count per connected master and slave (bytes)
system.membus.pkt_count_system.cpu1.itb_walker_cache.mem_side::system.mem_ctrls.port          254                       # Packet count per connected master and slave (bytes)
system.membus.pkt_count_system.cpu1.itb_walker_cache.mem_side::total          254                       # Packet count per connected master and slave (bytes)
system.membus.pkt_count_system.cpu1.dtb_walker_cache.mem_side::system.mem_ctrls.port          260                       # Packet count per connected master and slave (bytes)
system.membus.pkt_count_system.cpu1.dtb_walker_cache.mem_side::total          260                       # Packet count per connected master and slave (bytes)
system.membus.pkt_count_system.cpu1.interrupts.int_master::system.cpu0.interrupts.int_slave         1832                       # Packet count per connected master and slave (bytes)
system.membus.pkt_count_system.cpu1.interrupts.int_master::system.cpu2.interrupts.int_slave         1904                       # Packet count per connected master and slave (bytes)
system.membus.pkt_count_system.cpu1.interrupts.int_master::system.cpu3.interrupts.int_slave          174                       # Packet count per connected master and slave (bytes)
system.membus.pkt_count_system.cpu1.interrupts.int_master::total         3910                       # Packet count per connected master and slave (bytes)
system.membus.pkt_count_system.cpu2.icache.mem_side::system.mem_ctrls.port       588098                       # Packet count per connected master and slave (bytes)
system.membus.pkt_count_system.cpu2.icache.mem_side::total       588098                       # Packet count per connected master and slave (bytes)
system.membus.pkt_count_system.cpu2.dcache.mem_side::system.bridge.slave         2462                       # Packet count per connected master and slave (bytes)
system.membus.pkt_count_system.cpu2.dcache.mem_side::system.cpu2.interrupts.pio        10200                       # Packet count per connected master and slave (bytes)
system.membus.pkt_count_system.cpu2.dcache.mem_side::system.mem_ctrls.port       664871                       # Packet count per connected master and slave (bytes)
system.membus.pkt_count_system.cpu2.dcache.mem_side::total       677533                       # Packet count per connected master and slave (bytes)
system.membus.pkt_count_system.cpu2.itb_walker_cache.mem_side::system.mem_ctrls.port         3670                       # Packet count per connected master and slave (bytes)
system.membus.pkt_count_system.cpu2.itb_walker_cache.mem_side::total         3670                       # Packet count per connected master and slave (bytes)
system.membus.pkt_count_system.cpu2.dtb_walker_cache.mem_side::system.mem_ctrls.port         2846                       # Packet count per connected master and slave (bytes)
system.membus.pkt_count_system.cpu2.dtb_walker_cache.mem_side::total         2846                       # Packet count per connected master and slave (bytes)
system.membus.pkt_count_system.cpu2.interrupts.int_master::system.cpu0.interrupts.int_slave            6                       # Packet count per connected master and slave (bytes)
system.membus.pkt_count_system.cpu2.interrupts.int_master::system.cpu1.interrupts.int_slave         1850                       # Packet count per connected master and slave (bytes)
system.membus.pkt_count_system.cpu2.interrupts.int_master::system.cpu3.interrupts.int_slave           16                       # Packet count per connected master and slave (bytes)
system.membus.pkt_count_system.cpu2.interrupts.int_master::total         1872                       # Packet count per connected master and slave (bytes)
system.membus.pkt_count_system.cpu3.icache.mem_side::system.mem_ctrls.port       199320                       # Packet count per connected master and slave (bytes)
system.membus.pkt_count_system.cpu3.icache.mem_side::total       199320                       # Packet count per connected master and slave (bytes)
system.membus.pkt_count_system.cpu3.dcache.mem_side::system.bridge.slave         7058                       # Packet count per connected master and slave (bytes)
system.membus.pkt_count_system.cpu3.dcache.mem_side::system.cpu3.interrupts.pio         3340                       # Packet count per connected master and slave (bytes)
system.membus.pkt_count_system.cpu3.dcache.mem_side::system.mem_ctrls.port       263191                       # Packet count per connected master and slave (bytes)
system.membus.pkt_count_system.cpu3.dcache.mem_side::total       273589                       # Packet count per connected master and slave (bytes)
system.membus.pkt_count_system.cpu3.itb_walker_cache.mem_side::system.mem_ctrls.port         8396                       # Packet count per connected master and slave (bytes)
system.membus.pkt_count_system.cpu3.itb_walker_cache.mem_side::total         8396                       # Packet count per connected master and slave (bytes)
system.membus.pkt_count_system.cpu3.dtb_walker_cache.mem_side::system.mem_ctrls.port         5964                       # Packet count per connected master and slave (bytes)
system.membus.pkt_count_system.cpu3.dtb_walker_cache.mem_side::total         5964                       # Packet count per connected master and slave (bytes)
system.membus.pkt_count_system.cpu3.interrupts.int_master::system.cpu0.interrupts.int_slave           12                       # Packet count per connected master and slave (bytes)
system.membus.pkt_count_system.cpu3.interrupts.int_master::system.cpu1.interrupts.int_slave          138                       # Packet count per connected master and slave (bytes)
system.membus.pkt_count_system.cpu3.interrupts.int_master::system.cpu2.interrupts.int_slave           38                       # Packet count per connected master and slave (bytes)
system.membus.pkt_count_system.cpu3.interrupts.int_master::total          188                       # Packet count per connected master and slave (bytes)
system.membus.pkt_count::total               15584617                       # Packet count per connected master and slave (bytes)
system.membus.pkt_size_system.apicbridge.master::system.cpu0.interrupts.int_slave          644                       # Cumulative packet size per connected master and slave (bytes)
system.membus.pkt_size_system.apicbridge.master::system.cpu1.interrupts.int_slave          388                       # Cumulative packet size per connected master and slave (bytes)
system.membus.pkt_size_system.apicbridge.master::system.cpu2.interrupts.int_slave          388                       # Cumulative packet size per connected master and slave (bytes)
system.membus.pkt_size_system.apicbridge.master::system.cpu3.interrupts.int_slave          392                       # Cumulative packet size per connected master and slave (bytes)
system.membus.pkt_size_system.apicbridge.master::total         1812                       # Cumulative packet size per connected master and slave (bytes)
system.membus.pkt_size_system.iocache.mem_side::system.mem_ctrls.port      2737280                       # Cumulative packet size per connected master and slave (bytes)
system.membus.pkt_size_system.iocache.mem_side::total      2737280                       # Cumulative packet size per connected master and slave (bytes)
system.membus.pkt_size_system.cpu0.icache.mem_side::system.mem_ctrls.port     19503168                       # Cumulative packet size per connected master and slave (bytes)
system.membus.pkt_size_system.cpu0.icache.mem_side::total     19503168                       # Cumulative packet size per connected master and slave (bytes)
system.membus.pkt_size_system.cpu0.dcache.mem_side::system.bridge.slave      4405817                       # Cumulative packet size per connected master and slave (bytes)
system.membus.pkt_size_system.cpu0.dcache.mem_side::system.cpu0.interrupts.pio        21760                       # Cumulative packet size per connected master and slave (bytes)
system.membus.pkt_size_system.cpu0.dcache.mem_side::system.mem_ctrls.port    110806592                       # Cumulative packet size per connected master and slave (bytes)
system.membus.pkt_size_system.cpu0.dcache.mem_side::total    115234169                       # Cumulative packet size per connected master and slave (bytes)
system.membus.pkt_size_system.cpu0.itb_walker_cache.mem_side::system.mem_ctrls.port        14336                       # Cumulative packet size per connected master and slave (bytes)
system.membus.pkt_size_system.cpu0.itb_walker_cache.mem_side::total        14336                       # Cumulative packet size per connected master and slave (bytes)
system.membus.pkt_size_system.cpu0.dtb_walker_cache.mem_side::system.mem_ctrls.port        13312                       # Cumulative packet size per connected master and slave (bytes)
system.membus.pkt_size_system.cpu0.dtb_walker_cache.mem_side::total        13312                       # Cumulative packet size per connected master and slave (bytes)
system.membus.pkt_size_system.cpu0.interrupts.int_master::system.cpu1.interrupts.int_slave         3936                       # Cumulative packet size per connected master and slave (bytes)
system.membus.pkt_size_system.cpu0.interrupts.int_master::system.cpu2.interrupts.int_slave          348                       # Cumulative packet size per connected master and slave (bytes)
system.membus.pkt_size_system.cpu0.interrupts.int_master::system.cpu3.interrupts.int_slave          364                       # Cumulative packet size per connected master and slave (bytes)
system.membus.pkt_size_system.cpu0.interrupts.int_master::total         4648                       # Cumulative packet size per connected master and slave (bytes)
system.membus.pkt_size_system.cpu1.icache.mem_side::system.mem_ctrls.port     14554496                       # Cumulative packet size per connected master and slave (bytes)
system.membus.pkt_size_system.cpu1.icache.mem_side::total     14554496                       # Cumulative packet size per connected master and slave (bytes)
system.membus.pkt_size_system.cpu1.dcache.mem_side::system.bridge.slave         2332                       # Cumulative packet size per connected master and slave (bytes)
system.membus.pkt_size_system.cpu1.dcache.mem_side::system.cpu1.interrupts.pio        35936                       # Cumulative packet size per connected master and slave (bytes)
system.membus.pkt_size_system.cpu1.dcache.mem_side::system.mem_ctrls.port     19053504                       # Cumulative packet size per connected master and slave (bytes)
system.membus.pkt_size_system.cpu1.dcache.mem_side::total     19091772                       # Cumulative packet size per connected master and slave (bytes)
system.membus.pkt_size_system.cpu1.itb_walker_cache.mem_side::system.mem_ctrls.port         8128                       # Cumulative packet size per connected master and slave (bytes)
system.membus.pkt_size_system.cpu1.itb_walker_cache.mem_side::total         8128                       # Cumulative packet size per connected master and slave (bytes)
system.membus.pkt_size_system.cpu1.dtb_walker_cache.mem_side::system.mem_ctrls.port         8320                       # Cumulative packet size per connected master and slave (bytes)
system.membus.pkt_size_system.cpu1.dtb_walker_cache.mem_side::total         8320                       # Cumulative packet size per connected master and slave (bytes)
system.membus.pkt_size_system.cpu1.interrupts.int_master::system.cpu0.interrupts.int_slave         3664                       # Cumulative packet size per connected master and slave (bytes)
system.membus.pkt_size_system.cpu1.interrupts.int_master::system.cpu2.interrupts.int_slave         3808                       # Cumulative packet size per connected master and slave (bytes)
system.membus.pkt_size_system.cpu1.interrupts.int_master::system.cpu3.interrupts.int_slave          348                       # Cumulative packet size per connected master and slave (bytes)
system.membus.pkt_size_system.cpu1.interrupts.int_master::total         7820                       # Cumulative packet size per connected master and slave (bytes)
system.membus.pkt_size_system.cpu2.icache.mem_side::system.mem_ctrls.port     18819136                       # Cumulative packet size per connected master and slave (bytes)
system.membus.pkt_size_system.cpu2.icache.mem_side::total     18819136                       # Cumulative packet size per connected master and slave (bytes)
system.membus.pkt_size_system.cpu2.dcache.mem_side::system.bridge.slave         1516                       # Cumulative packet size per connected master and slave (bytes)
system.membus.pkt_size_system.cpu2.dcache.mem_side::system.cpu2.interrupts.pio        20400                       # Cumulative packet size per connected master and slave (bytes)
system.membus.pkt_size_system.cpu2.dcache.mem_side::system.mem_ctrls.port     20554944                       # Cumulative packet size per connected master and slave (bytes)
system.membus.pkt_size_system.cpu2.dcache.mem_side::total     20576860                       # Cumulative packet size per connected master and slave (bytes)
system.membus.pkt_size_system.cpu2.itb_walker_cache.mem_side::system.mem_ctrls.port       117440                       # Cumulative packet size per connected master and slave (bytes)
system.membus.pkt_size_system.cpu2.itb_walker_cache.mem_side::total       117440                       # Cumulative packet size per connected master and slave (bytes)
system.membus.pkt_size_system.cpu2.dtb_walker_cache.mem_side::system.mem_ctrls.port        91072                       # Cumulative packet size per connected master and slave (bytes)
system.membus.pkt_size_system.cpu2.dtb_walker_cache.mem_side::total        91072                       # Cumulative packet size per connected master and slave (bytes)
system.membus.pkt_size_system.cpu2.interrupts.int_master::system.cpu0.interrupts.int_slave           12                       # Cumulative packet size per connected master and slave (bytes)
system.membus.pkt_size_system.cpu2.interrupts.int_master::system.cpu1.interrupts.int_slave         3700                       # Cumulative packet size per connected master and slave (bytes)
system.membus.pkt_size_system.cpu2.interrupts.int_master::system.cpu3.interrupts.int_slave           32                       # Cumulative packet size per connected master and slave (bytes)
system.membus.pkt_size_system.cpu2.interrupts.int_master::total         3744                       # Cumulative packet size per connected master and slave (bytes)
system.membus.pkt_size_system.cpu3.icache.mem_side::system.mem_ctrls.port      6378240                       # Cumulative packet size per connected master and slave (bytes)
system.membus.pkt_size_system.cpu3.icache.mem_side::total      6378240                       # Cumulative packet size per connected master and slave (bytes)
system.membus.pkt_size_system.cpu3.dcache.mem_side::system.bridge.slave         3853                       # Cumulative packet size per connected master and slave (bytes)
system.membus.pkt_size_system.cpu3.dcache.mem_side::system.cpu3.interrupts.pio         6680                       # Cumulative packet size per connected master and slave (bytes)
system.membus.pkt_size_system.cpu3.dcache.mem_side::system.mem_ctrls.port      8552384                       # Cumulative packet size per connected master and slave (bytes)
system.membus.pkt_size_system.cpu3.dcache.mem_side::total      8562917                       # Cumulative packet size per connected master and slave (bytes)
system.membus.pkt_size_system.cpu3.itb_walker_cache.mem_side::system.mem_ctrls.port       268672                       # Cumulative packet size per connected master and slave (bytes)
system.membus.pkt_size_system.cpu3.itb_walker_cache.mem_side::total       268672                       # Cumulative packet size per connected master and slave (bytes)
system.membus.pkt_size_system.cpu3.dtb_walker_cache.mem_side::system.mem_ctrls.port       190848                       # Cumulative packet size per connected master and slave (bytes)
system.membus.pkt_size_system.cpu3.dtb_walker_cache.mem_side::total       190848                       # Cumulative packet size per connected master and slave (bytes)
system.membus.pkt_size_system.cpu3.interrupts.int_master::system.cpu0.interrupts.int_slave           24                       # Cumulative packet size per connected master and slave (bytes)
system.membus.pkt_size_system.cpu3.interrupts.int_master::system.cpu1.interrupts.int_slave          276                       # Cumulative packet size per connected master and slave (bytes)
system.membus.pkt_size_system.cpu3.interrupts.int_master::system.cpu2.interrupts.int_slave           76                       # Cumulative packet size per connected master and slave (bytes)
system.membus.pkt_size_system.cpu3.interrupts.int_master::total          376                       # Cumulative packet size per connected master and slave (bytes)
system.membus.pkt_size::total               226188566                       # Cumulative packet size per connected master and slave (bytes)
system.membus.snoops                                0                       # Total snoops (count)
system.membus.snoop_fanout::samples           3659259                       # Request fanout histogram
system.membus.snoop_fanout::mean                   16                       # Request fanout histogram
system.membus.snoop_fanout::stdev                   0                       # Request fanout histogram
system.membus.snoop_fanout::underflows              0      0.00%      0.00% # Request fanout histogram
system.membus.snoop_fanout::0                       0      0.00%      0.00% # Request fanout histogram
system.membus.snoop_fanout::1                       0      0.00%      0.00% # Request fanout histogram
system.membus.snoop_fanout::2                       0      0.00%      0.00% # Request fanout histogram
system.membus.snoop_fanout::3                       0      0.00%      0.00% # Request fanout histogram
system.membus.snoop_fanout::4                       0      0.00%      0.00% # Request fanout histogram
system.membus.snoop_fanout::5                       0      0.00%      0.00% # Request fanout histogram
system.membus.snoop_fanout::6                       0      0.00%      0.00% # Request fanout histogram
system.membus.snoop_fanout::7                       0      0.00%      0.00% # Request fanout histogram
system.membus.snoop_fanout::8                       0      0.00%      0.00% # Request fanout histogram
system.membus.snoop_fanout::9                       0      0.00%      0.00% # Request fanout histogram
system.membus.snoop_fanout::10                      0      0.00%      0.00% # Request fanout histogram
system.membus.snoop_fanout::11                      0      0.00%      0.00% # Request fanout histogram
system.membus.snoop_fanout::12                      0      0.00%      0.00% # Request fanout histogram
system.membus.snoop_fanout::13                      0      0.00%      0.00% # Request fanout histogram
system.membus.snoop_fanout::14                      0      0.00%      0.00% # Request fanout histogram
system.membus.snoop_fanout::15                      0      0.00%      0.00% # Request fanout histogram
system.membus.snoop_fanout::16                3659259    100.00%    100.00% # Request fanout histogram
system.membus.snoop_fanout::17                      0      0.00%    100.00% # Request fanout histogram
system.membus.snoop_fanout::overflows               0      0.00%    100.00% # Request fanout histogram
system.membus.snoop_fanout::min_value              16                       # Request fanout histogram
system.membus.snoop_fanout::max_value              16                       # Request fanout histogram
system.membus.snoop_fanout::total             3659259                       # Request fanout histogram
system.cpu_voltage_domain.voltage                   1                       # Voltage in Volts
system.pc.south_bridge.ide.disks0.dma_read_full_pages            9                       # Number of full page size DMA reads (not PRD).
system.pc.south_bridge.ide.disks0.dma_read_bytes        36864                       # Number of bytes transfered via DMA reads (not PRD).
system.pc.south_bridge.ide.disks0.dma_read_txs            9                       # Number of DMA read transactions (not PRD).
system.pc.south_bridge.ide.disks0.dma_write_full_pages          648                       # Number of full page size DMA writes.
system.pc.south_bridge.ide.disks0.dma_write_bytes      2657280                       # Number of bytes transfered via DMA writes.
system.pc.south_bridge.ide.disks0.dma_write_txs          652                       # Number of DMA write transactions.
system.pc.south_bridge.ide.disks1.dma_read_full_pages            0                       # Number of full page size DMA reads (not PRD).
system.pc.south_bridge.ide.disks1.dma_read_bytes            0                       # Number of bytes transfered via DMA reads (not PRD).
system.pc.south_bridge.ide.disks1.dma_read_txs            0                       # Number of DMA read transactions (not PRD).
system.pc.south_bridge.ide.disks1.dma_write_full_pages            1                       # Number of full page size DMA writes.
system.pc.south_bridge.ide.disks1.dma_write_bytes         4096                       # Number of bytes transfered via DMA writes.
system.pc.south_bridge.ide.disks1.dma_write_txs            1                       # Number of DMA write transactions.
system.iobus.trans_dist::ReadReq              4373733                       # Transaction distribution
system.iobus.trans_dist::ReadResp             4373733                       # Transaction distribution
system.iobus.trans_dist::WriteReq               53615                       # Transaction distribution
system.iobus.trans_dist::WriteResp              12031                       # Transaction distribution
system.iobus.trans_dist::WriteInvalidateResp        41584                       # Transaction distribution
system.iobus.trans_dist::MessageReq               453                       # Transaction distribution
system.iobus.trans_dist::MessageResp              453                       # Transaction distribution
system.iobus.pkt_count_system.bridge.master::system.pc.south_bridge.cmos.pio           68                       # Packet count per connected master and slave (bytes)
system.iobus.pkt_count_system.bridge.master::system.pc.south_bridge.dma1.pio            6                       # Packet count per connected master and slave (bytes)
system.iobus.pkt_count_system.bridge.master::system.pc.south_bridge.ide.pio         6304                       # Packet count per connected master and slave (bytes)
system.iobus.pkt_count_system.bridge.master::system.pc.south_bridge.ide-pciconf          180                       # Packet count per connected master and slave (bytes)
system.iobus.pkt_count_system.bridge.master::system.pc.south_bridge.keyboard.pio         1376                       # Packet count per connected master and slave (bytes)
system.iobus.pkt_count_system.bridge.master::system.pc.south_bridge.pic1.pio           56                       # Packet count per connected master and slave (bytes)
system.iobus.pkt_count_system.bridge.master::system.pc.south_bridge.pic2.pio           52                       # Packet count per connected master and slave (bytes)
system.iobus.pkt_count_system.bridge.master::system.pc.south_bridge.pit.pio      8702142                       # Packet count per connected master and slave (bytes)
system.iobus.pkt_count_system.bridge.master::system.pc.south_bridge.speaker.pio            4                       # Packet count per connected master and slave (bytes)
system.iobus.pkt_count_system.bridge.master::system.pc.south_bridge.io_apic.pio         1236                       # Packet count per connected master and slave (bytes)
system.iobus.pkt_count_system.bridge.master::system.pc.i_dont_exist.pio           60                       # Packet count per connected master and slave (bytes)
system.iobus.pkt_count_system.bridge.master::system.pc.behind_pci.pio            2                       # Packet count per connected master and slave (bytes)
system.iobus.pkt_count_system.bridge.master::system.pc.com_1.pio        38844                       # Packet count per connected master and slave (bytes)
system.iobus.pkt_count_system.bridge.master::system.pc.fake_com_2.pio           12                       # Packet count per connected master and slave (bytes)
system.iobus.pkt_count_system.bridge.master::system.pc.fake_com_3.pio           12                       # Packet count per connected master and slave (bytes)
system.iobus.pkt_count_system.bridge.master::system.pc.fake_com_4.pio           12                       # Packet count per connected master and slave (bytes)
system.iobus.pkt_count_system.bridge.master::system.pc.fake_floppy.pio           10                       # Packet count per connected master and slave (bytes)
system.iobus.pkt_count_system.bridge.master::system.pc.pciconfig.pio        18780                       # Packet count per connected master and slave (bytes)
system.iobus.pkt_count_system.bridge.master::total      8769156                       # Packet count per connected master and slave (bytes)
system.iobus.pkt_count_system.pc.south_bridge.ide.dma::system.iocache.cpu_side        85540                       # Packet count per connected master and slave (bytes)
system.iobus.pkt_count_system.pc.south_bridge.ide.dma::total        85540                       # Packet count per connected master and slave (bytes)
system.iobus.pkt_count_system.pc.south_bridge.io_apic.int_master::system.apicbridge.slave          906                       # Packet count per connected master and slave (bytes)
system.iobus.pkt_count_system.pc.south_bridge.io_apic.int_master::total          906                       # Packet count per connected master and slave (bytes)
system.iobus.pkt_count::total                 8855602                       # Packet count per connected master and slave (bytes)
system.iobus.pkt_size_system.bridge.master::system.pc.south_bridge.cmos.pio           34                       # Cumulative packet size per connected master and slave (bytes)
system.iobus.pkt_size_system.bridge.master::system.pc.south_bridge.dma1.pio            3                       # Cumulative packet size per connected master and slave (bytes)
system.iobus.pkt_size_system.bridge.master::system.pc.south_bridge.ide.pio         3985                       # Cumulative packet size per connected master and slave (bytes)
system.iobus.pkt_size_system.bridge.master::system.pc.south_bridge.ide-pciconf          219                       # Cumulative packet size per connected master and slave (bytes)
system.iobus.pkt_size_system.bridge.master::system.pc.south_bridge.keyboard.pio          688                       # Cumulative packet size per connected master and slave (bytes)
system.iobus.pkt_size_system.bridge.master::system.pc.south_bridge.pic1.pio           28                       # Cumulative packet size per connected master and slave (bytes)
system.iobus.pkt_size_system.bridge.master::system.pc.south_bridge.pic2.pio           26                       # Cumulative packet size per connected master and slave (bytes)
system.iobus.pkt_size_system.bridge.master::system.pc.south_bridge.pit.pio      4351071                       # Cumulative packet size per connected master and slave (bytes)
system.iobus.pkt_size_system.bridge.master::system.pc.south_bridge.speaker.pio            2                       # Cumulative packet size per connected master and slave (bytes)
system.iobus.pkt_size_system.bridge.master::system.pc.south_bridge.io_apic.pio         2472                       # Cumulative packet size per connected master and slave (bytes)
system.iobus.pkt_size_system.bridge.master::system.pc.i_dont_exist.pio           30                       # Cumulative packet size per connected master and slave (bytes)
system.iobus.pkt_size_system.bridge.master::system.pc.behind_pci.pio            1                       # Cumulative packet size per connected master and slave (bytes)
system.iobus.pkt_size_system.bridge.master::system.pc.com_1.pio        19422                       # Cumulative packet size per connected master and slave (bytes)
system.iobus.pkt_size_system.bridge.master::system.pc.fake_com_2.pio            6                       # Cumulative packet size per connected master and slave (bytes)
system.iobus.pkt_size_system.bridge.master::system.pc.fake_com_3.pio            6                       # Cumulative packet size per connected master and slave (bytes)
system.iobus.pkt_size_system.bridge.master::system.pc.fake_com_4.pio            6                       # Cumulative packet size per connected master and slave (bytes)
system.iobus.pkt_size_system.bridge.master::system.pc.fake_floppy.pio            5                       # Cumulative packet size per connected master and slave (bytes)
system.iobus.pkt_size_system.bridge.master::system.pc.pciconfig.pio        35514                       # Cumulative packet size per connected master and slave (bytes)
system.iobus.pkt_size_system.bridge.master::total      4413518                       # Cumulative packet size per connected master and slave (bytes)
system.iobus.pkt_size_system.pc.south_bridge.ide.dma::system.iocache.cpu_side      2703120                       # Cumulative packet size per connected master and slave (bytes)
system.iobus.pkt_size_system.pc.south_bridge.ide.dma::total      2703120                       # Cumulative packet size per connected master and slave (bytes)
system.iobus.pkt_size_system.pc.south_bridge.io_apic.int_master::system.apicbridge.slave         1812                       # Cumulative packet size per connected master and slave (bytes)
system.iobus.pkt_size_system.pc.south_bridge.io_apic.int_master::total         1812                       # Cumulative packet size per connected master and slave (bytes)
system.iobus.pkt_size::total                  7118450                       # Cumulative packet size per connected master and slave (bytes)
system.cpu_clk_domain.clock                       333                       # Clock period in ticks
system.cpu0.apic_clk_domain.clock                5328                       # Clock period in ticks
system.cpu0.numCycles                     14248934696                       # number of cpu cycles simulated
system.cpu0.numWorkItemsStarted                     0                       # number of work items this cpu started
system.cpu0.numWorkItemsCompleted                   0                       # number of work items this cpu completed
system.cpu0.committedInsts                  289836677                       # Number of instructions committed
system.cpu0.committedOps                    757878833                       # Number of ops (including micro ops) committed
system.cpu0.num_int_alu_accesses            668948986                       # Number of integer alu accesses
system.cpu0.num_fp_alu_accesses                   428                       # Number of float alu accesses
system.cpu0.num_func_calls                    2187899                       # number of times a function call or return occured
system.cpu0.num_conditional_control_insts     93733323                       # number of instructions that are conditional controls
system.cpu0.num_int_insts                   668948986                       # number of integer instructions
system.cpu0.num_fp_insts                          428                       # number of float instructions
system.cpu0.num_int_register_reads         1030045878                       # number of times the integer registers were read
system.cpu0.num_int_register_writes         565256450                       # number of times the integer registers were written
system.cpu0.num_fp_register_reads                 715                       # number of times the floating registers were read
system.cpu0.num_fp_register_writes                351                       # number of times the floating registers were written
system.cpu0.num_cc_register_reads           482516506                       # number of times the CC registers were read
system.cpu0.num_cc_register_writes          207825814                       # number of times the CC registers were written
system.cpu0.num_mem_refs                    102888243                       # number of memory refs
system.cpu0.num_load_insts                   89416883                       # Number of load instructions
system.cpu0.num_store_insts                  13471360                       # Number of store instructions
system.cpu0.num_idle_cycles              13397720561.740776                       # Number of idle cycles
system.cpu0.num_busy_cycles              851214134.259223                       # Number of busy cycles
system.cpu0.not_idle_fraction                0.059739                       # Percentage of non-idle cycles
system.cpu0.idle_fraction                    0.940261                       # Percentage of idle cycles
system.cpu0.Branches                         97431082                       # Number of branches fetched
system.cpu0.op_class::No_OpClass              7583741      1.00%      1.00% # Class of executed instruction
system.cpu0.op_class::IntAlu                647212712     85.40%     86.40% # Class of executed instruction
system.cpu0.op_class::IntMult                  175886      0.02%     86.42% # Class of executed instruction
system.cpu0.op_class::IntDiv                    17962      0.00%     86.42% # Class of executed instruction
system.cpu0.op_class::FloatAdd                    302      0.00%     86.42% # Class of executed instruction
system.cpu0.op_class::FloatCmp                      0      0.00%     86.42% # Class of executed instruction
system.cpu0.op_class::FloatCvt                      0      0.00%     86.42% # Class of executed instruction
system.cpu0.op_class::FloatMult                     0      0.00%     86.42% # Class of executed instruction
system.cpu0.op_class::FloatDiv                      0      0.00%     86.42% # Class of executed instruction
system.cpu0.op_class::FloatSqrt                     0      0.00%     86.42% # Class of executed instruction
system.cpu0.op_class::SimdAdd                       0      0.00%     86.42% # Class of executed instruction
system.cpu0.op_class::SimdAddAcc                    0      0.00%     86.42% # Class of executed instruction
system.cpu0.op_class::SimdAlu                       0      0.00%     86.42% # Class of executed instruction
system.cpu0.op_class::SimdCmp                       0      0.00%     86.42% # Class of executed instruction
system.cpu0.op_class::SimdCvt                       0      0.00%     86.42% # Class of executed instruction
system.cpu0.op_class::SimdMisc                      0      0.00%     86.42% # Class of executed instruction
system.cpu0.op_class::SimdMult                      0      0.00%     86.42% # Class of executed instruction
system.cpu0.op_class::SimdMultAcc                   0      0.00%     86.42% # Class of executed instruction
system.cpu0.op_class::SimdShift                     0      0.00%     86.42% # Class of executed instruction
system.cpu0.op_class::SimdShiftAcc                  0      0.00%     86.42% # Class of executed instruction
system.cpu0.op_class::SimdSqrt                      0      0.00%     86.42% # Class of executed instruction
system.cpu0.op_class::SimdFloatAdd                  0      0.00%     86.42% # Class of executed instruction
system.cpu0.op_class::SimdFloatAlu                  0      0.00%     86.42% # Class of executed instruction
system.cpu0.op_class::SimdFloatCmp                  0      0.00%     86.42% # Class of executed instruction
system.cpu0.op_class::SimdFloatCvt                  0      0.00%     86.42% # Class of executed instruction
system.cpu0.op_class::SimdFloatDiv                  0      0.00%     86.42% # Class of executed instruction
system.cpu0.op_class::SimdFloatMisc                 0      0.00%     86.42% # Class of executed instruction
system.cpu0.op_class::SimdFloatMult                 0      0.00%     86.42% # Class of executed instruction
system.cpu0.op_class::SimdFloatMultAcc              0      0.00%     86.42% # Class of executed instruction
system.cpu0.op_class::SimdFloatSqrt                 0      0.00%     86.42% # Class of executed instruction
system.cpu0.op_class::MemRead                89416883     11.80%     98.22% # Class of executed instruction
system.cpu0.op_class::MemWrite               13471360      1.78%    100.00% # Class of executed instruction
system.cpu0.op_class::IprAccess                     0      0.00%    100.00% # Class of executed instruction
system.cpu0.op_class::InstPrefetch                  0      0.00%    100.00% # Class of executed instruction
[...]
system.cpu3.numWorkItemsStarted                     0                       # number of work items this cpu started
system.cpu3.numWorkItemsCompleted                   0                       # number of work items this cpu completed
system.cpu3.committedInsts                          0                       # Number of instructions committed
system.cpu3.committedOps                            0                       # Number of ops (including micro ops) committed
system.cpu3.num_int_alu_accesses                    0                       # Number of integer alu accesses
system.cpu3.num_fp_alu_accesses                     0                       # Number of float alu accesses
system.cpu3.num_func_calls                          0                       # number of times a function call or return occured
system.cpu3.num_conditional_control_insts            0                       # number of instructions that are conditional controls
system.cpu3.num_int_insts                           0                       # number of integer instructions
system.cpu3.num_fp_insts                            0                       # number of float instructions
system.cpu3.num_int_register_reads                  0                       # number of times the integer registers were read
system.cpu3.num_int_register_writes                 0                       # number of times the integer registers were written
system.cpu3.num_fp_register_reads                   0                       # number of times the floating registers were read
system.cpu3.num_fp_register_writes                  0                       # number of times the floating registers were written
system.cpu3.num_mem_refs                            0                       # number of memory refs
system.cpu3.num_load_insts                          0                       # Number of load instructions
system.cpu3.num_store_insts                         0                       # Number of store instructions
system.cpu3.num_idle_cycles                         0                       # Number of idle cycles
system.cpu3.num_busy_cycles                         0                       # Number of busy cycles
system.cpu3.not_idle_fraction                       0                       # Percentage of non-idle cycles
system.cpu3.idle_fraction                           1                       # Percentage of idle cycles
system.cpu3.op_class::No_OpClass                    0                       # Class of executed instruction
system.cpu3.op_class::IntAlu                        0                       # Class of executed instruction
system.cpu3.op_class::IntMult                       0                       # Class of executed instruction
system.cpu3.op_class::IntDiv                        0                       # Class of executed instruction
system.cpu3.op_class::FloatAdd                      0                       # Class of executed instruction
system.cpu3.op_class::FloatCmp                      0                       # Class of executed instruction
system.cpu3.op_class::FloatCvt                      0                       # Class of executed instruction
system.cpu3.op_class::FloatMult                     0                       # Class of executed instruction
system.cpu3.op_class::FloatDiv                      0                       # Class of executed instruction
system.cpu3.op_class::FloatSqrt                     0                       # Class of executed instruction
system.cpu3.op_class::SimdAdd                       0                       # Class of executed instruction
system.cpu3.op_class::SimdAddAcc                    0                       # Class of executed instruction
system.cpu3.op_class::SimdAlu                       0                       # Class of executed instruction
system.cpu3.op_class::SimdCmp                       0                       # Class of executed instruction
system.cpu3.op_class::SimdCvt                       0                       # Class of executed instruction
system.cpu3.op_class::SimdMisc                      0                       # Class of executed instruction
system.cpu3.op_class::SimdMult                      0                       # Class of executed instruction
system.cpu3.op_class::SimdMultAcc                   0                       # Class of executed instruction
system.cpu3.op_class::SimdShift                     0                       # Class of executed instruction
system.cpu3.op_class::SimdShiftAcc                  0                       # Class of executed instruction
system.cpu3.op_class::SimdSqrt                      0                       # Class of executed instruction
system.cpu3.op_class::SimdFloatAdd                  0                       # Class of executed instruction
system.cpu3.op_class::SimdFloatAlu                  0                       # Class of executed instruction
system.cpu3.op_class::SimdFloatCmp                  0                       # Class of executed instruction
system.cpu3.op_class::SimdFloatCvt                  0                       # Class of executed instruction
system.cpu3.op_class::SimdFloatDiv                  0                       # Class of executed instruction
system.cpu3.op_class::SimdFloatMisc                 0                       # Class of executed instruction
system.cpu3.op_class::SimdFloatMult                 0                       # Class of executed instruction
system.cpu3.op_class::SimdFloatMultAcc              0                       # Class of executed instruction
system.cpu3.op_class::SimdFloatSqrt                 0                       # Class of executed instruction
system.cpu3.op_class::MemRead                       0                       # Class of executed instruction
system.cpu3.op_class::MemWrite                      0                       # Class of executed instruction
system.cpu3.op_class::IprAccess                     0                       # Class of executed instruction
system.cpu3.op_class::InstPrefetch                  0                       # Class of executed instruction
system.cpu3.op_class::total                         0                       # Class of executed instruction
system.cpu3.kern.inst.arm                           0                       # number of arm instructions executed
system.cpu3.kern.inst.quiesce                       0                       # number of quiesce instructions executed
system.cpu3.icache.tags.replacements                0                       # number of replacements
system.cpu3.icache.tags.tagsinuse                 512                       # Cycle average of tags in use
system.cpu3.icache.tags.total_refs            5186941                       # Total number of references to valid blocks.
system.cpu3.icache.tags.sampled_refs              512                       # Sample count of references to valid blocks.
system.cpu3.icache.tags.avg_refs         10130.744141                       # Average number of references to valid blocks.
system.cpu3.icache.tags.warmup_cycle                0                       # Cycle when the warmup percentage was hit.
system.cpu3.icache.tags.occ_blocks::cpu3.inst          512                       # Average occupied blocks per requestor
system.cpu3.icache.tags.occ_percent::cpu3.inst            1                       # Average percentage of cache occupancy
system.cpu3.icache.tags.occ_percent::total            1                       # Average percentage of cache occupancy
system.cpu3.icache.tags.occ_task_id_blocks::1024          512                       # Occupied blocks per task id
system.cpu3.icache.tags.age_task_id_blocks_1024::2          264                       # Occupied blocks per task id
system.cpu3.icache.tags.age_task_id_blocks_1024::3          202                       # Occupied blocks per task id
system.cpu3.icache.tags.age_task_id_blocks_1024::4           46                       # Occupied blocks per task id
system.cpu3.icache.tags.occ_task_id_percent::1024            1                       # Percentage of cache occupancy per task id
system.cpu3.icache.tags.tag_accesses                0                       # Number of tag accesses
system.cpu3.icache.tags.data_accesses               0                       # Number of data accesses
system.cpu3.icache.blocked_cycles::no_mshrs            0                       # number of cycles access was blocked
system.cpu3.icache.blocked_cycles::no_targets            0                       # number of cycles access was blocked
system.cpu3.icache.blocked::no_mshrs                0                       # number of cycles access was blocked
system.cpu3.icache.blocked::no_targets              0                       # number of cycles access was blocked
system.cpu3.icache.avg_blocked_cycles::no_mshrs          nan                       # average number of cycles each access was blocked
system.cpu3.icache.avg_blocked_cycles::no_targets          nan                       # average number of cycles each access was blocked
system.cpu3.icache.fast_writes                      0                       # number of fast writes performed
system.cpu3.icache.cache_copies                     0                       # number of cache copies performed
system.cpu3.icache.no_allocate_misses               0                       # Number of misses that were no-allocate
system.cpu3.itb_walker_cache.tags.replacements            0                       # number of replacements
system.cpu3.itb_walker_cache.tags.tagsinuse            0                       # Cycle average of tags in use
system.cpu3.itb_walker_cache.tags.total_refs            0                       # Total number of references to valid blocks.
system.cpu3.itb_walker_cache.tags.sampled_refs            0                       # Sample count of references to valid blocks.
system.cpu3.itb_walker_cache.tags.avg_refs          nan                       # Average number of references to valid blocks.
system.cpu3.itb_walker_cache.tags.warmup_cycle            0                       # Cycle when the warmup percentage was hit.
system.cpu3.itb_walker_cache.tags.tag_accesses            0                       # Number of tag accesses
system.cpu3.itb_walker_cache.tags.data_accesses            0                       # Number of data accesses
system.cpu3.itb_walker_cache.blocked_cycles::no_mshrs            0                       # number of cycles access was blocked
system.cpu3.itb_walker_cache.blocked_cycles::no_targets            0                       # number of cycles access was blocked
system.cpu3.itb_walker_cache.blocked::no_mshrs            0                       # number of cycles access was blocked
system.cpu3.itb_walker_cache.blocked::no_targets            0                       # number of cycles access was blocked
system.cpu3.itb_walker_cache.avg_blocked_cycles::no_mshrs          nan                       # average number of cycles each access was blocked
system.cpu3.itb_walker_cache.avg_blocked_cycles::no_targets          nan                       # average number of cycles each access was blocked
system.cpu3.itb_walker_cache.fast_writes            0                       # number of fast writes performed
system.cpu3.itb_walker_cache.cache_copies            0                       # number of cache copies performed
system.cpu3.itb_walker_cache.no_allocate_misses            0                       # Number of misses that were no-allocate
system.cpu3.dtb_walker_cache.tags.replacements            0                       # number of replacements
system.cpu3.dtb_walker_cache.tags.tagsinuse            6                       # Cycle average of tags in use
system.cpu3.dtb_walker_cache.tags.total_refs            8                       # Total number of references to valid blocks.
system.cpu3.dtb_walker_cache.tags.sampled_refs            6                       # Sample count of references to valid blocks.
system.cpu3.dtb_walker_cache.tags.avg_refs     1.333333                       # Average number of references to valid blocks.
system.cpu3.dtb_walker_cache.tags.warmup_cycle            0                       # Cycle when the warmup percentage was hit.
system.cpu3.dtb_walker_cache.tags.occ_blocks::cpu3.dtb.walker            6                       # Average occupied blocks per requestor
system.cpu3.dtb_walker_cache.tags.occ_percent::cpu3.dtb.walker     0.375000                       # Average percentage of cache occupancy
system.cpu3.dtb_walker_cache.tags.occ_percent::total     0.375000                       # Average percentage of cache occupancy
system.cpu3.dtb_walker_cache.tags.occ_task_id_blocks::1024            6                       # Occupied blocks per task id
system.cpu3.dtb_walker_cache.tags.age_task_id_blocks_1024::2            3                       # Occupied blocks per task id
system.cpu3.dtb_walker_cache.tags.age_task_id_blocks_1024::3            3                       # Occupied blocks per task id
system.cpu3.dtb_walker_cache.tags.occ_task_id_percent::1024     0.375000                       # Percentage of cache occupancy per task id
system.cpu3.dtb_walker_cache.tags.tag_accesses            0                       # Number of tag accesses
system.cpu3.dtb_walker_cache.tags.data_accesses            0                       # Number of data accesses
system.cpu3.dtb_walker_cache.blocked_cycles::no_mshrs            0                       # number of cycles access was blocked
system.cpu3.dtb_walker_cache.blocked_cycles::no_targets            0                       # number of cycles access was blocked
system.cpu3.dtb_walker_cache.blocked::no_mshrs            0                       # number of cycles access was blocked
system.cpu3.dtb_walker_cache.blocked::no_targets            0                       # number of cycles access was blocked
system.cpu3.dtb_walker_cache.avg_blocked_cycles::no_mshrs          nan                       # average number of cycles each access was blocked
system.cpu3.dtb_walker_cache.avg_blocked_cycles::no_targets          nan                       # average number of cycles each access was blocked
system.cpu3.dtb_walker_cache.fast_writes            0                       # number of fast writes performed
system.cpu3.dtb_walker_cache.cache_copies            0                       # number of cache copies performed
system.cpu3.dtb_walker_cache.no_allocate_misses            0                       # Number of misses that were no-allocate
system.cpu3.dcache.tags.replacements                0                       # number of replacements
system.cpu3.dcache.tags.tagsinuse                 927                       # Cycle average of tags in use
system.cpu3.dcache.tags.total_refs             140623                       # Total number of references to valid blocks.
system.cpu3.dcache.tags.sampled_refs              927                       # Sample count of references to valid blocks.
system.cpu3.dcache.tags.avg_refs           151.696872                       # Average number of references to valid blocks.
system.cpu3.dcache.tags.warmup_cycle                0                       # Cycle when the warmup percentage was hit.
system.cpu3.dcache.tags.occ_blocks::cpu3.data          927                       # Average occupied blocks per requestor
system.cpu3.dcache.tags.occ_percent::cpu3.data     0.905273                       # Average percentage of cache occupancy
system.cpu3.dcache.tags.occ_percent::total     0.905273                       # Average percentage of cache occupancy
system.cpu3.dcache.tags.occ_task_id_blocks::1024          927                       # Occupied blocks per task id
system.cpu3.dcache.tags.age_task_id_blocks_1024::2          184                       # Occupied blocks per task id
system.cpu3.dcache.tags.age_task_id_blocks_1024::3          743                       # Occupied blocks per task id
system.cpu3.dcache.tags.occ_task_id_percent::1024     0.905273                       # Percentage of cache occupancy per task id
system.cpu3.dcache.tags.tag_accesses                0                       # Number of tag accesses
system.cpu3.dcache.tags.data_accesses               0                       # Number of data accesses
system.cpu3.dcache.blocked_cycles::no_mshrs            0                       # number of cycles access was blocked
system.cpu3.dcache.blocked_cycles::no_targets            0                       # number of cycles access was blocked
system.cpu3.dcache.blocked::no_mshrs                0                       # number of cycles access was blocked
system.cpu3.dcache.blocked::no_targets              0                       # number of cycles access was blocked
system.cpu3.dcache.avg_blocked_cycles::no_mshrs          nan                       # average number of cycles each access was blocked
system.cpu3.dcache.avg_blocked_cycles::no_targets          nan                       # average number of cycles each access was blocked
system.cpu3.dcache.fast_writes                      0                       # number of fast writes performed
system.cpu3.dcache.cache_copies                     0                       # number of cache copies performed
system.cpu3.dcache.no_allocate_misses               0                       # Number of misses that were no-allocate
system.iocache.tags.replacements                    0                       # number of replacements
system.iocache.tags.tagsinuse                      16                       # Cycle average of tags in use
system.iocache.tags.total_refs                      0                       # Total number of references to valid blocks.
system.iocache.tags.sampled_refs                   16                       # Sample count of references to valid blocks.
system.iocache.tags.avg_refs                        0                       # Average number of references to valid blocks.
system.iocache.tags.warmup_cycle                    0                       # Cycle when the warmup percentage was hit.
system.iocache.tags.occ_blocks::pc.south_bridge.ide           16                       # Average occupied blocks per requestor
system.iocache.tags.occ_percent::pc.south_bridge.ide            1                       # Average percentage of cache occupancy
system.iocache.tags.occ_percent::total              1                       # Average percentage of cache occupancy
system.iocache.tags.occ_task_id_blocks::1023           16                       # Occupied blocks per task id
system.iocache.tags.age_task_id_blocks_1023::4           16                       # Occupied blocks per task id
system.iocache.tags.occ_task_id_percent::1023            1                       # Percentage of cache occupancy per task id
system.iocache.tags.tag_accesses                    0                       # Number of tag accesses
system.iocache.tags.data_accesses                   0                       # Number of data accesses
system.iocache.blocked_cycles::no_mshrs             0                       # number of cycles access was blocked
system.iocache.blocked_cycles::no_targets            0                       # number of cycles access was blocked
system.iocache.blocked::no_mshrs                    0                       # number of cycles access was blocked
system.iocache.blocked::no_targets                  0                       # number of cycles access was blocked
system.iocache.avg_blocked_cycles::no_mshrs          nan                       # average number of cycles each access was blocked
system.iocache.avg_blocked_cycles::no_targets          nan                       # average number of cycles each access was blocked
system.iocache.fast_writes                          0                       # number of fast writes performed
system.iocache.cache_copies                         0                       # number of cache copies performed
system.iocache.no_allocate_misses                   0                       # Number of misses that were no-allocate

---------- End Simulation Statistics   ----------
