
---------- Begin Simulation Statistics ----------
sim_seconds                                  2.633537                       # Number of seconds simulated
sim_ticks                                2633537019000                       # Number of ticks simulated
final_tick                               2633537019000                       # Number of ticks from beginning of simulation (restored from checkpoints and never reset)
sim_freq                                 1000000000000                       # Frequency of simulated ticks
host_inst_rate                                 937095                       # Simulator instruction rate (inst/s)
host_op_rate                                   937095                       # Simulator op (including micro ops) rate (op/s)
host_tick_rate                            25117810505                       # Simulator tick rate (ticks/s)
host_mem_usage                                 455664                       # Number of bytes of host memory used
host_seconds                                   104.85                       # Real time elapsed on the host
sim_insts                                    98251995                       # Number of instructions simulated
sim_ops                                      98251995                       # Number of ops (including micro ops) simulated
system.voltage_domain.voltage                       1                       # Voltage in Volts
system.clk_domain.clock                          1000                       # Clock period in ticks
system.mem_ctrls.bytes_read::cpu0.inst       65395904                       # Number of bytes read from this memory
system.mem_ctrls.bytes_read::cpu0.data      176458048                       # Number of bytes read from this memory
system.mem_ctrls.bytes_read::tsunami.ide         4032                       # Number of bytes read from this memory
system.mem_ctrls.bytes_read::cpu1.inst       22817920                       # Number of bytes read from this memory
system.mem_ctrls.bytes_read::cpu1.data        6117248                       # Number of bytes read from this memory
system.mem_ctrls.bytes_read::total          270793152                       # Number of bytes read from this memory
system.mem_ctrls.bytes_inst_read::cpu0.inst     65395904                       # Number of instructions bytes read from this memory
system.mem_ctrls.bytes_inst_read::cpu1.inst     22817920                       # Number of instructions bytes read from this memory
system.mem_ctrls.bytes_inst_read::total      88213824                       # Number of instructions bytes read from this memory
system.mem_ctrls.bytes_written::writebacks     31277568                       # Number of bytes written to this memory
system.mem_ctrls.bytes_written::tsunami.ide      2832384                       # Number of bytes written to this memory
system.mem_ctrls.bytes_written::total        34109952                       # Number of bytes written to this memory
system.mem_ctrls.num_reads::cpu0.inst         1021811                       # Number of read requests responded to by this memory
system.mem_ctrls.num_reads::cpu0.data         2757157                       # Number of read requests responded to by this memory
system.mem_ctrls.num_reads::tsunami.ide            63                       # Number of read requests responded to by this memory
system.mem_ctrls.num_reads::cpu1.inst          356530                       # Number of read requests responded to by this memory
system.mem_ctrls.num_reads::cpu1.data           95582                       # Number of read requests responded to by this memory
system.mem_ctrls.num_reads::total             4231143                       # Number of read requests responded to by this memory
system.mem_ctrls.num_writes::writebacks        488712                       # Number of write requests responded to by this memory
system.mem_ctrls.num_writes::tsunami.ide        44256                       # Number of write requests responded to by this memory
system.mem_ctrls.num_writes::total             532968                       # Number of write requests responded to by this memory
system.mem_ctrls.bw_read::cpu0.inst          24831967                       # Total read bandwidth from this memory (bytes/s)
system.mem_ctrls.bw_read::cpu0.data          67004203                       # Total read bandwidth from this memory (bytes/s)
system.mem_ctrls.bw_read::tsunami.ide            1531                       # Total read bandwidth from this memory (bytes/s)
system.mem_ctrls.bw_read::cpu1.inst           8664363                       # Total read bandwidth from this memory (bytes/s)
system.mem_ctrls.bw_read::cpu1.data           2322826                       # Total read bandwidth from this memory (bytes/s)
system.mem_ctrls.bw_read::total             102824889                       # Total read bandwidth from this memory (bytes/s)
system.mem_ctrls.bw_inst_read::cpu0.inst     24831967                       # Instruction read bandwidth from this memory (bytes/s)
system.mem_ctrls.bw_inst_read::cpu1.inst      8664363                       # Instruction read bandwidth from this memory (bytes/s)
system.mem_ctrls.bw_inst_read::total         33496330                       # Instruction read bandwidth from this memory (bytes/s)
system.mem_ctrls.bw_write::writebacks        11876639                       # Write bandwidth from this memory (bytes/s)
system.mem_ctrls.bw_write::tsunami.ide        1075506                       # Write bandwidth from this memory (bytes/s)
system.mem_ctrls.bw_write::total             12952144                       # Write bandwidth from this memory (bytes/s)
system.mem_ctrls.bw_total::writebacks        11876639                       # Total bandwidth to/from this memory (bytes/s)
system.mem_ctrls.bw_total::cpu0.inst         24831967                       # Total bandwidth to/from this memory (bytes/s)
system.mem_ctrls.bw_total::cpu0.data         67004203                       # Total bandwidth to/from this memory (bytes/s)
system.mem_ctrls.bw_total::tsunami.ide        1077037                       # Total bandwidth to/from this memory (bytes/s)
system.mem_ctrls.bw_total::cpu1.inst          8664363                       # Total bandwidth to/from this memory (bytes/s)
system.mem_ctrls.bw_total::cpu1.data          2322826                       # Total bandwidth to/from this memory (bytes/s)
system.mem_ctrls.bw_total::total            115777034                       # Total bandwidth to/from this memory (bytes/s)
system.mem_ctrls.readReqs                     4231143                       # Number of read requests accepted
system.mem_ctrls.writeReqs                     532968                       # Number of write requests accepted
system.mem_ctrls.readBursts                   4231143                       # Number of DRAM read bursts, including those serviced by the write queue
system.mem_ctrls.writeBursts                   532968                       # Number of DRAM write bursts, including those merged in the write queue
system.mem_ctrls.bytesReadDRAM              268889216                       # Total number of bytes read from DRAM
system.mem_ctrls.bytesReadWrQ                 1903936                       # Total number of bytes read from write queue
system.mem_ctrls.bytesWritten                33817536                       # Total number of bytes written to DRAM
system.mem_ctrls.bytesReadSys               270793152                       # Total read bytes from the system interface side
system.mem_ctrls.bytesWrittenSys             34109952                       # Total written bytes from the system interface side
system.mem_ctrls.servicedByWrQ                  29749                       # Number of DRAM read bursts serviced by the write queue
system.mem_ctrls.mergedWrBursts                  4544                       # Number of DRAM write bursts merged with an existing one
system.mem_ctrls.neitherReadNorWriteReqs        17553                       # Number of requests that are neither read nor write
system.mem_ctrls.perBankRdBursts::0            281865                       # Per bank write bursts
system.mem_ctrls.perBankRdBursts::1            301305                       # Per bank write bursts
system.mem_ctrls.perBankRdBursts::2            287862                       # Per bank write bursts
system.mem_ctrls.perBankRdBursts::3            167447                       # Per bank write bursts
system.mem_ctrls.perBankRdBursts::4            150323                       # Per bank write bursts
system.mem_ctrls.perBankRdBursts::5            264114                       # Per bank write bursts
system.mem_ctrls.perBankRdBursts::6            286659                       # Per bank write bursts
system.mem_ctrls.perBankRdBursts::7            225369                       # Per bank write bursts
system.mem_ctrls.perBankRdBursts::8            334915                       # Per bank write bursts
system.mem_ctrls.perBankRdBursts::9            238810                       # Per bank write bursts
system.mem_ctrls.perBankRdBursts::10           265837                       # Per bank write bursts
system.mem_ctrls.perBankRdBursts::11           371130                       # Per bank write bursts
system.mem_ctrls.perBankRdBursts::12           258929                       # Per bank write bursts
system.mem_ctrls.perBankRdBursts::13           249155                       # Per bank write bursts
system.mem_ctrls.perBankRdBursts::14           286446                       # Per bank write bursts
system.mem_ctrls.perBankRdBursts::15           231228                       # Per bank write bursts
system.mem_ctrls.perBankWrBursts::0             23654                       # Per bank write bursts
system.mem_ctrls.perBankWrBursts::1             37369                       # Per bank write bursts
system.mem_ctrls.perBankWrBursts::2             56857                       # Per bank write bursts
system.mem_ctrls.perBankWrBursts::3             24149                       # Per bank write bursts
system.mem_ctrls.perBankWrBursts::4             28574                       # Per bank write bursts
system.mem_ctrls.perBankWrBursts::5             27899                       # Per bank write bursts
system.mem_ctrls.perBankWrBursts::6             32886                       # Per bank write bursts
system.mem_ctrls.perBankWrBursts::7             51603                       # Per bank write bursts
system.mem_ctrls.perBankWrBursts::8             23114                       # Per bank write bursts
system.mem_ctrls.perBankWrBursts::9             22707                       # Per bank write bursts
system.mem_ctrls.perBankWrBursts::10            31932                       # Per bank write bursts
system.mem_ctrls.perBankWrBursts::11            56190                       # Per bank write bursts
system.mem_ctrls.perBankWrBursts::12            27848                       # Per bank write bursts
system.mem_ctrls.perBankWrBursts::13            22347                       # Per bank write bursts
system.mem_ctrls.perBankWrBursts::14            28512                       # Per bank write bursts
system.mem_ctrls.perBankWrBursts::15            32758                       # Per bank write bursts
system.mem_ctrls.numRdRetry                         0                       # Number of times read queue was full causing retry
system.mem_ctrls.numWrRetry                        34                       # Number of times write queue was full causing retry
system.mem_ctrls.totGap                  2633536973000                       # Total gap between requests
system.mem_ctrls.readPktSize::0                     0                       # Read request sizes (log2)
system.mem_ctrls.readPktSize::1                     0                       # Read request sizes (log2)
system.mem_ctrls.readPktSize::2                     0                       # Read request sizes (log2)
system.mem_ctrls.readPktSize::3                     0                       # Read request sizes (log2)
system.mem_ctrls.readPktSize::4                     0                       # Read request sizes (log2)
system.mem_ctrls.readPktSize::5                     0                       # Read request sizes (log2)
system.mem_ctrls.readPktSize::6               4231143                       # Read request sizes (log2)
system.mem_ctrls.writePktSize::0                    0                       # Write request sizes (log2)
system.mem_ctrls.writePktSize::1                    0                       # Write request sizes (log2)
system.mem_ctrls.writePktSize::2                    0                       # Write request sizes (log2)
system.mem_ctrls.writePktSize::3                    0                       # Write request sizes (log2)
system.mem_ctrls.writePktSize::4                    0                       # Write request sizes (log2)
system.mem_ctrls.writePktSize::5                    0                       # Write request sizes (log2)
system.mem_ctrls.writePktSize::6               532968                       # Write request sizes (log2)
system.mem_ctrls.rdQLenPdf::0                 4068719                       # What read queue length does an incoming req see
system.mem_ctrls.rdQLenPdf::1                  132609                       # What read queue length does an incoming req see
system.mem_ctrls.rdQLenPdf::2                       2                       # What read queue length does an incoming req see
system.mem_ctrls.rdQLenPdf::3                       5                       # What read queue length does an incoming req see
system.mem_ctrls.rdQLenPdf::4                       3                       # What read queue length does an incoming req see
system.mem_ctrls.rdQLenPdf::5                       8                       # What read queue length does an incoming req see
system.mem_ctrls.rdQLenPdf::6                      11                       # What read queue length does an incoming req see
system.mem_ctrls.rdQLenPdf::7                       9                       # What read queue length does an incoming req see
system.mem_ctrls.rdQLenPdf::8                       7                       # What read queue length does an incoming req see
system.mem_ctrls.rdQLenPdf::9                       5                       # What read queue length does an incoming req see
system.mem_ctrls.rdQLenPdf::10                      4                       # What read queue length does an incoming req see
system.mem_ctrls.rdQLenPdf::11                      3                       # What read queue length does an incoming req see
system.mem_ctrls.rdQLenPdf::12                      1                       # What read queue length does an incoming req see
system.mem_ctrls.rdQLenPdf::13                      1                       # What read queue length does an incoming req see
system.mem_ctrls.rdQLenPdf::14                      1                       # What read queue length does an incoming req see
system.mem_ctrls.rdQLenPdf::15                      2                       # What read queue length does an incoming req see
system.mem_ctrls.rdQLenPdf::16                      1                       # What read queue length does an incoming req see
system.mem_ctrls.rdQLenPdf::17                      2                       # What read queue length does an incoming req see
system.mem_ctrls.rdQLenPdf::18                      1                       # What read queue length does an incoming req see
system.mem_ctrls.rdQLenPdf::19                      0                       # What read queue length does an incoming req see
system.mem_ctrls.rdQLenPdf::20                      0                       # What read queue length does an incoming req see
system.mem_ctrls.rdQLenPdf::21                      0                       # What read queue length does an incoming req see
system.mem_ctrls.rdQLenPdf::22                      0                       # What read queue length does an incoming req see
system.mem_ctrls.rdQLenPdf::23                      0                       # What read queue length does an incoming req see
system.mem_ctrls.rdQLenPdf::24                      0                       # What read queue length does an incoming req see
system.mem_ctrls.rdQLenPdf::25                      0                       # What read queue length does an incoming req see
system.mem_ctrls.rdQLenPdf::26                      0                       # What read queue length does an incoming req see
system.mem_ctrls.rdQLenPdf::27                      0                       # What read queue length does an incoming req see
system.mem_ctrls.rdQLenPdf::28                      0                       # What read queue length does an incoming req see
system.mem_ctrls.rdQLenPdf::29                      0                       # What read queue length does an incoming req see
system.mem_ctrls.rdQLenPdf::30                      0                       # What read queue length does an incoming req see
system.mem_ctrls.rdQLenPdf::31                      0                       # What read queue length does an incoming req see
system.mem_ctrls.wrQLenPdf::0                       1                       # What write queue length does an incoming req see
system.mem_ctrls.wrQLenPdf::1                       1                       # What write queue length does an incoming req see
system.mem_ctrls.wrQLenPdf::2                       1                       # What write queue length does an incoming req see
system.mem_ctrls.wrQLenPdf::3                       1                       # What write queue length does an incoming req see
system.mem_ctrls.wrQLenPdf::4                       1                       # What write queue length does an incoming req see
system.mem_ctrls.wrQLenPdf::5                       1                       # What write queue length does an incoming req see
system.mem_ctrls.wrQLenPdf::6                       1                       # What write queue length does an incoming req see
system.mem_ctrls.wrQLenPdf::7                       1                       # What write queue length does an incoming req see
system.mem_ctrls.wrQLenPdf::8                       1                       # What write queue length does an incoming req see
system.mem_ctrls.wrQLenPdf::9                       1                       # What write queue length does an incoming req see
system.mem_ctrls.wrQLenPdf::10                      1                       # What write queue length does an incoming req see
system.mem_ctrls.wrQLenPdf::11                      1                       # What write queue length does an incoming req see
system.mem_ctrls.wrQLenPdf::12                      1                       # What write queue length does an incoming req see
system.mem_ctrls.wrQLenPdf::13                      1                       # What write queue length does an incoming req see
system.mem_ctrls.wrQLenPdf::14                      1                       # What write queue length does an incoming req see
system.mem_ctrls.wrQLenPdf::15                   9251                       # What write queue length does an incoming req see
system.mem_ctrls.wrQLenPdf::16                   9843                       # What write queue length does an incoming req see
system.mem_ctrls.wrQLenPdf::17                  28553                       # What write queue length does an incoming req see
system.mem_ctrls.wrQLenPdf::18                  29161                       # What write queue length does an incoming req see
system.mem_ctrls.wrQLenPdf::19                  29341                       # What write queue length does an incoming req see
system.mem_ctrls.wrQLenPdf::20                  29643                       # What write queue length does an incoming req see
system.mem_ctrls.wrQLenPdf::21                  29717                       # What write queue length does an incoming req see
system.mem_ctrls.wrQLenPdf::22                  30529                       # What write queue length does an incoming req see
system.mem_ctrls.wrQLenPdf::23                  31097                       # What write queue length does an incoming req see
system.mem_ctrls.wrQLenPdf::24                  31739                       # What write queue length does an incoming req see
system.mem_ctrls.wrQLenPdf::25                  31966                       # What write queue length does an incoming req see
system.mem_ctrls.wrQLenPdf::26                  31685                       # What write queue length does an incoming req see
system.mem_ctrls.wrQLenPdf::27                  31780                       # What write queue length does an incoming req see
system.mem_ctrls.wrQLenPdf::28                  32546                       # What write queue length does an incoming req see
system.mem_ctrls.wrQLenPdf::29                  32372                       # What write queue length does an incoming req see
system.mem_ctrls.wrQLenPdf::30                  32516                       # What write queue length does an incoming req see
system.mem_ctrls.wrQLenPdf::31                  32546                       # What write queue length does an incoming req see
system.mem_ctrls.wrQLenPdf::32                  32489                       # What write queue length does an incoming req see
system.mem_ctrls.wrQLenPdf::33                   1496                       # What write queue length does an incoming req see
system.mem_ctrls.wrQLenPdf::34                   1131                       # What write queue length does an incoming req see
system.mem_ctrls.wrQLenPdf::35                    998                       # What write queue length does an incoming req see
system.mem_ctrls.wrQLenPdf::36                    758                       # What write queue length does an incoming req see
system.mem_ctrls.wrQLenPdf::37                    631                       # What write queue length does an incoming req see
system.mem_ctrls.wrQLenPdf::38                    512                       # What write queue length does an incoming req see
system.mem_ctrls.wrQLenPdf::39                    454                       # What write queue length does an incoming req see
system.mem_ctrls.wrQLenPdf::40                    404                       # What write queue length does an incoming req see
system.mem_ctrls.wrQLenPdf::41                    334                       # What write queue length does an incoming req see
system.mem_ctrls.wrQLenPdf::42                    319                       # What write queue length does an incoming req see
system.mem_ctrls.wrQLenPdf::43                    308                       # What write queue length does an incoming req see
system.mem_ctrls.wrQLenPdf::44                    285                       # What write queue length does an incoming req see
system.mem_ctrls.wrQLenPdf::45                    268                       # What write queue length does an incoming req see
system.mem_ctrls.wrQLenPdf::46                    268                       # What write queue length does an incoming req see
system.mem_ctrls.wrQLenPdf::47                    273                       # What write queue length does an incoming req see
system.mem_ctrls.wrQLenPdf::48                    278                       # What write queue length does an incoming req see
system.mem_ctrls.wrQLenPdf::49                    271                       # What write queue length does an incoming req see
system.mem_ctrls.wrQLenPdf::50                    264                       # What write queue length does an incoming req see
system.mem_ctrls.wrQLenPdf::51                    263                       # What write queue length does an incoming req see
system.mem_ctrls.wrQLenPdf::52                    248                       # What write queue length does an incoming req see
system.mem_ctrls.wrQLenPdf::53                    212                       # What write queue length does an incoming req see
system.mem_ctrls.wrQLenPdf::54                    200                       # What write queue length does an incoming req see
system.mem_ctrls.wrQLenPdf::55                    184                       # What write queue length does an incoming req see
system.mem_ctrls.wrQLenPdf::56                    180                       # What write queue length does an incoming req see
system.mem_ctrls.wrQLenPdf::57                    206                       # What write queue length does an incoming req see
system.mem_ctrls.wrQLenPdf::58                    205                       # What write queue length does an incoming req see
system.mem_ctrls.wrQLenPdf::59                    191                       # What write queue length does an incoming req see
system.mem_ctrls.wrQLenPdf::60                    159                       # What write queue length does an incoming req see
system.mem_ctrls.wrQLenPdf::61                    132                       # What write queue length does an incoming req see
system.mem_ctrls.wrQLenPdf::62                    101                       # What write queue length does an incoming req see
system.mem_ctrls.wrQLenPdf::63                    102                       # What write queue length does an incoming req see
system.mem_ctrls.bytesPerActivate::samples      1093446                       # Bytes accessed per row activation
system.mem_ctrls.bytesPerActivate::mean    276.836760                       # Bytes accessed per row activation
system.mem_ctrls.bytesPerActivate::gmean   163.436415                       # Bytes accessed per row activation
system.mem_ctrls.bytesPerActivate::stdev   313.012757                       # Bytes accessed per row activation
system.mem_ctrls.bytesPerActivate::0-127       440061     40.25%     40.25% # Bytes accessed per row activation
system.mem_ctrls.bytesPerActivate::128-255       295997     27.07%     67.32% # Bytes accessed per row activation
system.mem_ctrls.bytesPerActivate::256-383        92992      8.50%     75.82% # Bytes accessed per row activation
system.mem_ctrls.bytesPerActivate::384-511        58887      5.39%     81.21% # Bytes accessed per row activation
system.mem_ctrls.bytesPerActivate::512-639        36077      3.30%     84.50% # Bytes accessed per row activation
system.mem_ctrls.bytesPerActivate::640-767        21923      2.00%     86.51% # Bytes accessed per row activation
system.mem_ctrls.bytesPerActivate::768-895        20196      1.85%     88.36% # Bytes accessed per row activation
system.mem_ctrls.bytesPerActivate::896-1023        12061      1.10%     89.46% # Bytes accessed per row activation
system.mem_ctrls.bytesPerActivate::1024-1151       115252     10.54%    100.00% # Bytes accessed per row activation
system.mem_ctrls.bytesPerActivate::total      1093446                       # Bytes accessed per row activation
system.mem_ctrls.rdPerTurnAround::samples        31525                       # Reads before turning the bus around for writes
system.mem_ctrls.rdPerTurnAround::mean     133.270611                       # Reads before turning the bus around for writes
system.mem_ctrls.rdPerTurnAround::stdev   5811.936648                       # Reads before turning the bus around for writes
system.mem_ctrls.rdPerTurnAround::0-32767        31524    100.00%    100.00% # Reads before turning the bus around for writes
system.mem_ctrls.rdPerTurnAround::1.01581e+06-1.04858e+06            1      0.00%    100.00% # Reads before turning the bus around for writes
system.mem_ctrls.rdPerTurnAround::total         31525                       # Reads before turning the bus around for writes
system.mem_ctrls.wrPerTurnAround::samples        31525                       # Writes before turning the bus around for reads
system.mem_ctrls.wrPerTurnAround::mean      16.761269                       # Writes before turning the bus around for reads
system.mem_ctrls.wrPerTurnAround::gmean     16.698895                       # Writes before turning the bus around for reads
system.mem_ctrls.wrPerTurnAround::stdev      2.003972                       # Writes before turning the bus around for reads
system.mem_ctrls.wrPerTurnAround::16-19         31096     98.64%     98.64% # Writes before turning the bus around for reads
system.mem_ctrls.wrPerTurnAround::20-23           247      0.78%     99.42% # Writes before turning the bus around for reads
system.mem_ctrls.wrPerTurnAround::24-27            96      0.30%     99.73% # Writes before turning the bus around for reads
system.mem_ctrls.wrPerTurnAround::28-31            42      0.13%     99.86% # Writes before turning the bus around for reads
system.mem_ctrls.wrPerTurnAround::32-35            20      0.06%     99.92% # Writes before turning the bus around for reads
system.mem_ctrls.wrPerTurnAround::36-39             2      0.01%     99.93% # Writes before turning the bus around for reads
system.mem_ctrls.wrPerTurnAround::40-43             5      0.02%     99.95% # Writes before turning the bus around for reads
system.mem_ctrls.wrPerTurnAround::44-47             2      0.01%     99.95% # Writes before turning the bus around for reads
system.mem_ctrls.wrPerTurnAround::48-51             5      0.02%     99.97% # Writes before turning the bus around for reads
system.mem_ctrls.wrPerTurnAround::56-59             1      0.00%     99.97% # Writes before turning the bus around for reads
system.mem_ctrls.wrPerTurnAround::76-79             1      0.00%     99.97% # Writes before turning the bus around for reads
system.mem_ctrls.wrPerTurnAround::80-83             3      0.01%     99.98% # Writes before turning the bus around for reads
system.mem_ctrls.wrPerTurnAround::88-91             1      0.00%     99.99% # Writes before turning the bus around for reads
system.mem_ctrls.wrPerTurnAround::96-99             2      0.01%     99.99% # Writes before turning the bus around for reads
system.mem_ctrls.wrPerTurnAround::104-107            1      0.00%    100.00% # Writes before turning the bus around for reads
system.mem_ctrls.wrPerTurnAround::156-159            1      0.00%    100.00% # Writes before turning the bus around for reads
system.mem_ctrls.wrPerTurnAround::total         31525                       # Writes before turning the bus around for reads
system.mem_ctrls.totQLat                  31986213765                       # Total ticks spent queuing
system.mem_ctrls.totMemAccLat            110762351265                       # Total ticks spent from burst creation until serviced by the DRAM
system.mem_ctrls.totBusLat                21006970000                       # Total ticks spent in databus transfers
system.mem_ctrls.avgQLat                      7613.24                       # Average queueing delay per DRAM burst
system.mem_ctrls.avgBusLat                    5000.00                       # Average bus latency per DRAM burst
system.mem_ctrls.avgMemAccLat                26363.24                       # Average memory access latency per DRAM burst
system.mem_ctrls.avgRdBW                       102.10                       # Average DRAM read bandwidth in MiByte/s
system.mem_ctrls.avgWrBW                        12.84                       # Average achieved write bandwidth in MiByte/s
system.mem_ctrls.avgRdBWSys                    102.82                       # Average system read bandwidth in MiByte/s
system.mem_ctrls.avgWrBWSys                     12.95                       # Average system write bandwidth in MiByte/s
system.mem_ctrls.peakBW                      12800.00                       # Theoretical peak bandwidth in MiByte/s
system.mem_ctrls.busUtil                         0.90                       # Data bus utilization in percentage
system.mem_ctrls.busUtilRead                     0.80                       # Data bus utilization in percentage for reads
system.mem_ctrls.busUtilWrite                    0.10                       # Data bus utilization in percentage for writes
system.mem_ctrls.avgRdQLen                       1.31                       # Average read queue length when enqueuing
system.mem_ctrls.avgWrQLen                      26.00                       # Average write queue length when enqueuing
system.mem_ctrls.readRowHits                  3279372                       # Number of row buffer hits during reads
system.mem_ctrls.writeRowHits                  356972                       # Number of row buffer hits during writes
system.mem_ctrls.readRowHitRate                 78.05                       # Row buffer hit rate for reads
system.mem_ctrls.writeRowHitRate                67.55                       # Row buffer hit rate for writes
system.mem_ctrls.avgGap                     552786.65                       # Average gap between requests
system.mem_ctrls.pageHitRate                    76.88                       # Row buffer hit rate, read and write combined
system.mem_ctrls.memoryStateTime::IDLE   2127204329750                       # Time in different power states
system.mem_ctrls.memoryStateTime::REF     87939540000                       # Time in different power states
system.mem_ctrls.memoryStateTime::PRE_PDN            0                       # Time in different power states
system.mem_ctrls.memoryStateTime::ACT    418391955250                       # Time in different power states
system.mem_ctrls.memoryStateTime::ACT_PDN            0                       # Time in different power states
system.mem_ctrls.actEnergy::0              3579576840                       # Energy for activate commands per rank (pJ)
system.mem_ctrls.actEnergy::1              4686874920                       # Energy for activate commands per rank (pJ)
system.mem_ctrls.preEnergy::0              1953142125                       # Energy for precharge commands per rank (pJ)
system.mem_ctrls.preEnergy::1              2557322625                       # Energy for precharge commands per rank (pJ)
system.mem_ctrls.readEnergy::0            15326563200                       # Energy for read commands per rank (pJ)
system.mem_ctrls.readEnergy::1            17444224200                       # Energy for read commands per rank (pJ)
system.mem_ctrls.writeEnergy::0            1833781680                       # Energy for write commands per rank (pJ)
system.mem_ctrls.writeEnergy::1            1590243840                       # Energy for write commands per rank (pJ)
system.mem_ctrls.refreshEnergy::0        172009740240                       # Energy for refresh commands per rank (pJ)
system.mem_ctrls.refreshEnergy::1        172009740240                       # Energy for refresh commands per rank (pJ)
system.mem_ctrls.actBackEnergy::0        291141405720                       # Energy for active background per rank (pJ)
system.mem_ctrls.actBackEnergy::1        301321003230                       # Energy for active background per rank (pJ)
system.mem_ctrls.preBackEnergy::0        1324734288750                       # Energy for precharge background per rank (pJ)
system.mem_ctrls.preBackEnergy::1        1315804817250                       # Energy for precharge background per rank (pJ)
system.mem_ctrls.totalEnergy::0          1810578498555                       # Total energy per rank (pJ)
system.mem_ctrls.totalEnergy::1          1815414226305                       # Total energy per rank (pJ)
system.mem_ctrls.averagePower::0           687.508592                       # Core power per rank (mW)
system.mem_ctrls.averagePower::1           689.344803                       # Core power per rank (mW)
system.membus.trans_dist::ReadReq             3987214                       # Transaction distribution
system.membus.trans_dist::ReadResp            3987214                       # Transaction distribution
system.membus.trans_dist::WriteReq              16473                       # Transaction distribution
system.membus.trans_dist::WriteResp             16473                       # Transaction distribution
system.membus.trans_dist::Writeback            488712                       # Transaction distribution
system.membus.trans_dist::WriteInvalidateReq        44256                       # Transaction distribution
system.membus.trans_dist::WriteInvalidateResp        44256                       # Transaction distribution
system.membus.trans_dist::UpgradeReq            49939                       # Transaction distribution
system.membus.trans_dist::SCUpgradeReq          32707                       # Transaction distribution
system.membus.trans_dist::UpgradeResp           82646                       # Transaction distribution
system.membus.trans_dist::SCUpgradeFailReq            1                       # Transaction distribution
system.membus.trans_dist::UpgradeFailResp            1                       # Transaction distribution
system.membus.trans_dist::ReadExReq            375702                       # Transaction distribution
system.membus.trans_dist::ReadExResp           375702                       # Transaction distribution
system.membus.pkt_count_system.iocache.mem_side::system.mem_ctrls.port        88784                       # Packet count per connected master and slave (bytes)
system.membus.pkt_count_system.iocache.mem_side::total        88784                       # Packet count per connected master and slave (bytes)
system.membus.pkt_count_system.cpu0.icache.mem_side::system.mem_ctrls.port      2043664                       # Packet count per connected master and slave (bytes)
system.membus.pkt_count_system.cpu0.icache.mem_side::total      2043664                       # Packet count per connected master and slave (bytes)
system.membus.pkt_count_system.cpu0.dcache.mem_side::system.bridge.slave        38986                       # Packet count per connected master and slave (bytes)
system.membus.pkt_count_system.cpu0.dcache.mem_side::system.mem_ctrls.port      6004530                       # Packet count per connected master and slave (bytes)
system.membus.pkt_count_system.cpu0.dcache.mem_side::total      6043516                       # Packet count per connected master and slave (bytes)
system.membus.pkt_count_system.cpu1.icache.mem_side::system.mem_ctrls.port       713079                       # Packet count per connected master and slave (bytes)
system.membus.pkt_count_system.cpu1.icache.mem_side::total       713079                       # Packet count per connected master and slave (bytes)
system.membus.pkt_count_system.cpu1.dcache.mem_side::system.bridge.slave         8910                       # Packet count per connected master and slave (bytes)
system.membus.pkt_count_system.cpu1.dcache.mem_side::system.mem_ctrls.port       413951                       # Packet count per connected master and slave (bytes)
system.membus.pkt_count_system.cpu1.dcache.mem_side::total       422861                       # Packet count per connected master and slave (bytes)
system.membus.pkt_count::total                9311904                       # Packet count per connected master and slave (bytes)
system.membus.pkt_size_system.iocache.mem_side::system.mem_ctrls.port      2836416                       # Cumulative packet size per connected master and slave (bytes)
system.membus.pkt_size_system.iocache.mem_side::total      2836416                       # Cumulative packet size per connected master and slave (bytes)
system.membus.pkt_size_system.cpu0.icache.mem_side::system.mem_ctrls.port     65395904                       # Cumulative packet size per connected master and slave (bytes)
system.membus.pkt_size_system.cpu0.icache.mem_side::total     65395904                       # Cumulative packet size per connected master and slave (bytes)
system.membus.pkt_size_system.cpu0.dcache.mem_side::system.bridge.slave        60440                       # Cumulative packet size per connected master and slave (bytes)
system.membus.pkt_size_system.cpu0.dcache.mem_side::system.mem_ctrls.port    202398272                       # Cumulative packet size per connected master and slave (bytes)
system.membus.pkt_size_system.cpu0.dcache.mem_side::total    202458712                       # Cumulative packet size per connected master and slave (bytes)
system.membus.pkt_size_system.cpu1.icache.mem_side::system.mem_ctrls.port     22817920                       # Cumulative packet size per connected master and slave (bytes)
system.membus.pkt_size_system.cpu1.icache.mem_side::total     22817920                       # Cumulative packet size per connected master and slave (bytes)
system.membus.pkt_size_system.cpu1.dcache.mem_side::system.bridge.slave        34699                       # Cumulative packet size per connected master and slave (bytes)
system.membus.pkt_size_system.cpu1.dcache.mem_side::system.mem_ctrls.port     11454592                       # Cumulative packet size per connected master and slave (bytes)
system.membus.pkt_size_system.cpu1.dcache.mem_side::total     11489291                       # Cumulative packet size per connected master and slave (bytes)
system.membus.pkt_size::total               304998243                       # Cumulative packet size per connected master and slave (bytes)
system.membus.snoops                           189392                       # Total snoops (count)
system.membus.snoop_fanout::samples           4971090                       # Request fanout histogram
system.membus.snoop_fanout::mean                    4                       # Request fanout histogram
system.membus.snoop_fanout::stdev                   0                       # Request fanout histogram
system.membus.snoop_fanout::underflows              0      0.00%      0.00% # Request fanout histogram
system.membus.snoop_fanout::0                       0      0.00%      0.00% # Request fanout histogram
system.membus.snoop_fanout::1                       0      0.00%      0.00% # Request fanout histogram
system.membus.snoop_fanout::2                       0      0.00%      0.00% # Request fanout histogram
system.membus.snoop_fanout::3                       0      0.00%      0.00% # Request fanout histogram
system.membus.snoop_fanout::4                 4971090    100.00%    100.00% # Request fanout histogram
system.membus.snoop_fanout::5                       0      0.00%    100.00% # Request fanout histogram
system.membus.snoop_fanout::overflows               0      0.00%    100.00% # Request fanout histogram
system.membus.snoop_fanout::min_value               4                       # Request fanout histogram
system.membus.snoop_fanout::max_value               4                       # Request fanout histogram
system.membus.snoop_fanout::total             4971090                       # Request fanout histogram
system.membus.reqLayer0.occupancy            40421000                       # Layer occupancy (ticks)
system.membus.reqLayer0.utilization               0.0                       # Layer utilization (%)
system.membus.reqLayer1.occupancy          9235200646                       # Layer occupancy (ticks)
system.membus.reqLayer1.utilization               0.4                       # Layer utilization (%)
system.membus.respLayer1.occupancy           46184467                       # Layer occupancy (ticks)
system.membus.respLayer1.utilization              0.0                       # Layer utilization (%)
system.membus.respLayer2.occupancy         9559744496                       # Layer occupancy (ticks)
system.membus.respLayer2.utilization              0.4                       # Layer utilization (%)
system.membus.respLayer3.occupancy        26071795756                       # Layer occupancy (ticks)
system.membus.respLayer3.utilization              1.0                       # Layer utilization (%)
system.membus.respLayer4.occupancy         3342308232                       # Layer occupancy (ticks)
system.membus.respLayer4.utilization              0.1                       # Layer utilization (%)
system.membus.respLayer5.occupancy         1730641569                       # Layer occupancy (ticks)
system.membus.respLayer5.utilization              0.1                       # Layer utilization (%)
system.iocache.tags.replacements                44428                       # number of replacements
system.iocache.tags.tagsinuse                0.384565                       # Cycle average of tags in use
system.iocache.tags.total_refs                      0                       # Total number of references to valid blocks.
system.iocache.tags.sampled_refs                44428                       # Sample count of references to valid blocks.
system.iocache.tags.avg_refs                        0                       # Average number of references to valid blocks.
system.iocache.tags.warmup_cycle         2567923988000                       # Cycle when the warmup percentage was hit.
system.iocache.tags.occ_blocks::tsunami.ide     0.384565                       # Average occupied blocks per requestor
system.iocache.tags.occ_percent::tsunami.ide     0.024035                       # Average percentage of cache occupancy
system.iocache.tags.occ_percent::total       0.024035                       # Average percentage of cache occupancy
system.iocache.tags.occ_task_id_blocks::1023           16                       # Occupied blocks per task id
system.iocache.tags.age_task_id_blocks_1023::4           16                       # Occupied blocks per task id
system.iocache.tags.occ_task_id_percent::1023            1                       # Percentage of cache occupancy per task id
system.iocache.tags.tag_accesses               400265                       # Number of tag accesses
system.iocache.tags.data_accesses              400265                       # Number of data accesses
system.iocache.WriteInvalidateReq_hits::tsunami.ide        44256                       # number of WriteInvalidateReq hits
system.iocache.WriteInvalidateReq_hits::total        44256                       # number of WriteInvalidateReq hits
system.iocache.ReadReq_misses::tsunami.ide          209                       # number of ReadReq misses
system.iocache.ReadReq_misses::total              209                       # number of ReadReq misses
system.iocache.WriteInvalidateReq_misses::tsunami.ide           10                       # number of WriteInvalidateReq misses
system.iocache.WriteInvalidateReq_misses::total           10                       # number of WriteInvalidateReq misses
system.iocache.demand_misses::tsunami.ide          209                       # number of demand (read+write) misses
system.iocache.demand_misses::total               209                       # number of demand (read+write) misses
system.iocache.overall_misses::tsunami.ide          209                       # number of overall misses
system.iocache.overall_misses::total              209                       # number of overall misses
system.iocache.ReadReq_miss_latency::tsunami.ide     30346104                       # number of ReadReq miss cycles
system.iocache.ReadReq_miss_latency::total     30346104                       # number of ReadReq miss cycles
system.iocache.demand_miss_latency::tsunami.ide     30346104                       # number of demand (read+write) miss cycles
system.iocache.demand_miss_latency::total     30346104                       # number of demand (read+write) miss cycles
system.iocache.overall_miss_latency::tsunami.ide     30346104                       # number of overall miss cycles
system.iocache.overall_miss_latency::total     30346104                       # number of overall miss cycles
system.iocache.ReadReq_accesses::tsunami.ide          209                       # number of ReadReq accesses(hits+misses)
system.iocache.ReadReq_accesses::total            209                       # number of ReadReq accesses(hits+misses)
system.iocache.WriteInvalidateReq_accesses::tsunami.ide        44266                       # number of WriteInvalidateReq accesses(hits+misses)
system.iocache.WriteInvalidateReq_accesses::total        44266                       # number of WriteInvalidateReq accesses(hits+misses)
system.iocache.demand_accesses::tsunami.ide          209                       # number of demand (read+write) accesses
system.iocache.demand_accesses::total             209                       # number of demand (read+write) accesses
system.iocache.overall_accesses::tsunami.ide          209                       # number of overall (read+write) accesses
system.iocache.overall_accesses::total            209                       # number of overall (read+write) accesses
system.iocache.ReadReq_miss_rate::tsunami.ide            1                       # miss rate for ReadReq accesses
system.iocache.ReadReq_miss_rate::total             1                       # miss rate for ReadReq accesses
system.iocache.WriteInvalidateReq_miss_rate::tsunami.ide     0.000226                       # miss rate for WriteInvalidateReq accesses
system.iocache.WriteInvalidateReq_miss_rate::total     0.000226                       # miss rate for WriteInvalidateReq accesses
system.iocache.demand_miss_rate::tsunami.ide            1                       # miss rate for demand accesses
system.iocache.demand_miss_rate::total              1                       # miss rate for demand accesses
system.iocache.overall_miss_rate::tsunami.ide            1                       # miss rate for overall accesses
system.iocache.overall_miss_rate::total             1                       # miss rate for overall accesses
system.iocache.ReadReq_avg_miss_latency::tsunami.ide 145196.669856                       # average ReadReq miss latency
system.iocache.ReadReq_avg_miss_latency::total 145196.669856                       # average ReadReq miss latency
system.iocache.demand_avg_miss_latency::tsunami.ide 145196.669856                       # average overall miss latency
system.iocache.demand_avg_miss_latency::total 145196.669856                       # average overall miss latency
system.iocache.overall_avg_miss_latency::tsunami.ide 145196.669856                       # average overall miss latency
system.iocache.overall_avg_miss_latency::total 145196.669856                       # average overall miss latency
system.iocache.blocked_cycles::no_mshrs           442                       # number of cycles access was blocked
system.iocache.blocked_cycles::no_targets            0                       # number of cycles access was blocked
system.iocache.blocked::no_mshrs                   45                       # number of cycles access was blocked
system.iocache.blocked::no_targets                  0                       # number of cycles access was blocked
system.iocache.avg_blocked_cycles::no_mshrs     9.822222                       # average number of cycles each access was blocked
system.iocache.avg_blocked_cycles::no_targets          nan                       # average number of cycles each access was blocked
system.iocache.fast_writes                      44256                       # number of fast writes performed
system.iocache.cache_copies                         0                       # number of cache copies performed
system.iocache.ReadReq_mshr_misses::tsunami.ide          209                       # number of ReadReq MSHR misses
system.iocache.ReadReq_mshr_misses::total          209                       # number of ReadReq MSHR misses
system.iocache.WriteInvalidateReq_mshr_misses::tsunami.ide        44256                       # number of WriteInvalidateReq MSHR misses
system.iocache.WriteInvalidateReq_mshr_misses::total        44256                       # number of WriteInvalidateReq MSHR misses
system.iocache.demand_mshr_misses::tsunami.ide          209                       # number of demand (read+write) MSHR misses
system.iocache.demand_mshr_misses::total          209                       # number of demand (read+write) MSHR misses
system.iocache.overall_mshr_misses::tsunami.ide          209                       # number of overall MSHR misses
system.iocache.overall_mshr_misses::total          209                       # number of overall MSHR misses
system.iocache.ReadReq_mshr_miss_latency::tsunami.ide     19475104                       # number of ReadReq MSHR miss cycles
system.iocache.ReadReq_mshr_miss_latency::total     19475104                       # number of ReadReq MSHR miss cycles
system.iocache.WriteInvalidateReq_mshr_miss_latency::tsunami.ide   2924629998                       # number of WriteInvalidateReq MSHR miss cycles
system.iocache.WriteInvalidateReq_mshr_miss_latency::total   2924629998                       # number of WriteInvalidateReq MSHR miss cycles
system.iocache.demand_mshr_miss_latency::tsunami.ide     19475104                       # number of demand (read+write) MSHR miss cycles
system.iocache.demand_mshr_miss_latency::total     19475104                       # number of demand (read+write) MSHR miss cycles
system.iocache.overall_mshr_miss_latency::tsunami.ide     19475104                       # number of overall MSHR miss cycles
system.iocache.overall_mshr_miss_latency::total     19475104                       # number of overall MSHR miss cycles
system.iocache.ReadReq_mshr_miss_rate::tsunami.ide            1                       # mshr miss rate for ReadReq accesses
system.iocache.ReadReq_mshr_miss_rate::total            1                       # mshr miss rate for ReadReq accesses
system.iocache.WriteInvalidateReq_mshr_miss_rate::tsunami.ide     0.999774                       # mshr miss rate for WriteInvalidateReq accesses
system.iocache.WriteInvalidateReq_mshr_miss_rate::total     0.999774                       # mshr miss rate for WriteInvalidateReq accesses
system.iocache.demand_mshr_miss_rate::tsunami.ide            1                       # mshr miss rate for demand accesses
system.iocache.demand_mshr_miss_rate::total            1                       # mshr miss rate for demand accesses
system.iocache.overall_mshr_miss_rate::tsunami.ide            1                       # mshr miss rate for overall accesses
system.iocache.overall_mshr_miss_rate::total            1                       # mshr miss rate for overall accesses
system.iocache.ReadReq_avg_mshr_miss_latency::tsunami.ide 93182.315789                       # average ReadReq mshr miss latency
system.iocache.ReadReq_avg_mshr_miss_latency::total 93182.315789                       # average ReadReq mshr miss latency
system.iocache.WriteInvalidateReq_avg_mshr_miss_latency::tsunami.ide 66084.372695                       # average WriteInvalidateReq mshr miss latency
system.iocache.WriteInvalidateReq_avg_mshr_miss_latency::total 66084.372695                       # average WriteInvalidateReq mshr miss latency
system.iocache.demand_avg_mshr_miss_latency::tsunami.ide 93182.315789                       # average overall mshr miss latency
system.iocache.demand_avg_mshr_miss_latency::total 93182.315789                       # average overall mshr miss latency
system.iocache.overall_avg_mshr_miss_latency::tsunami.ide 93182.315789                       # average overall mshr miss latency
system.iocache.overall_avg_mshr_miss_latency::total 93182.315789                       # average overall mshr miss latency
system.iocache.no_allocate_misses                   0                       # Number of misses that were no-allocate
system.disk0.dma_read_full_pages                    0                       # Number of full page size DMA reads (not PRD).
system.disk0.dma_read_bytes                      4096                       # Number of bytes transfered via DMA reads (not PRD).
system.disk0.dma_read_txs                           1                       # Number of DMA read transactions (not PRD).
system.disk0.dma_write_full_pages                 326                       # Number of full page size DMA writes.
system.disk0.dma_write_bytes                  2824192                       # Number of bytes transfered via DMA writes.
system.disk0.dma_write_txs                        365                       # Number of DMA write transactions.
system.disk2.dma_read_full_pages                    0                       # Number of full page size DMA reads (not PRD).
system.disk2.dma_read_bytes                         0                       # Number of bytes transfered via DMA reads (not PRD).
system.disk2.dma_read_txs                           0                       # Number of DMA read transactions (not PRD).
system.disk2.dma_write_full_pages                   1                       # Number of full page size DMA writes.
system.disk2.dma_write_bytes                     8192                       # Number of bytes transfered via DMA writes.
system.disk2.dma_write_txs                          1                       # Number of DMA write transactions.
system.cpu_voltage_domain.voltage                   1                       # Voltage in Volts
system.cpu_clk_domain.clock                      1000                       # Clock period in ticks
system.cpu0.dtb.fetch_hits                          0                       # ITB hits
system.cpu0.dtb.fetch_misses                        0                       # ITB misses
system.cpu0.dtb.fetch_acv                           0                       # ITB acv
system.cpu0.dtb.fetch_accesses                      0                       # ITB accesses
system.cpu0.dtb.read_hits                    14568043                       # DTB read hits
system.cpu0.dtb.read_misses                      8431                       # DTB read misses
system.cpu0.dtb.read_acv                           27                       # DTB read access violations
system.cpu0.dtb.read_accesses                  676949                       # DTB read accesses
system.cpu0.dtb.write_hits                    7145658                       # DTB write hits
system.cpu0.dtb.write_misses                      938                       # DTB write misses
system.cpu0.dtb.write_acv                         113                       # DTB write access violations
system.cpu0.dtb.write_accesses                 256853                       # DTB write accesses
system.cpu0.dtb.data_hits                    21713701                       # DTB hits
system.cpu0.dtb.data_misses                      9369                       # DTB misses
system.cpu0.dtb.data_acv                          140                       # DTB access violations
system.cpu0.dtb.data_accesses                  933802                       # DTB accesses
system.cpu0.itb.fetch_hits                    4548884                       # ITB hits
system.cpu0.itb.fetch_misses                     4178                       # ITB misses
system.cpu0.itb.fetch_acv                           1                       # ITB acv
system.cpu0.itb.fetch_accesses                4553062                       # ITB accesses
system.cpu0.itb.read_hits                           0                       # DTB read hits
system.cpu0.itb.read_misses                         0                       # DTB read misses
system.cpu0.itb.read_acv                            0                       # DTB read access violations
system.cpu0.itb.read_accesses                       0                       # DTB read accesses
system.cpu0.itb.write_hits                          0                       # DTB write hits
system.cpu0.itb.write_misses                        0                       # DTB write misses
system.cpu0.itb.write_acv                           0                       # DTB write access violations
system.cpu0.itb.write_accesses                      0                       # DTB write accesses
system.cpu0.itb.data_hits                           0                       # DTB hits
system.cpu0.itb.data_misses                         0                       # DTB misses
system.cpu0.itb.data_acv                            0                       # DTB access violations
system.cpu0.itb.data_accesses                       0                       # DTB accesses
system.cpu0.numCycles                      2633537019                       # number of cpu cycles simulated
system.cpu0.numWorkItemsStarted                     0                       # number of work items this cpu started
system.cpu0.numWorkItemsCompleted                   0                       # number of work items this cpu completed
system.cpu0.committedInsts                   83517035                       # Number of instructions committed
system.cpu0.committedOps                     83517035                       # Number of ops (including micro ops) committed
system.cpu0.num_int_alu_accesses             80822596                       # Number of integer alu accesses
system.cpu0.num_fp_alu_accesses                379296                       # Number of float alu accesses
system.cpu0.num_func_calls                    2528649                       # number of times a function call or return occured
system.cpu0.num_conditional_control_insts     10693456                       # number of instructions that are conditional controls
system.cpu0.num_int_insts                    80822596                       # number of integer instructions
system.cpu0.num_fp_insts                       379296                       # number of float instructions
system.cpu0.num_int_register_reads          111135665                       # number of times the integer registers were read
system.cpu0.num_int_register_writes          61861581                       # number of times the integer registers were written
system.cpu0.num_fp_register_reads              169878                       # number of times the floating registers were read
system.cpu0.num_fp_register_writes             173004                       # number of times the floating registers were written
system.cpu0.num_mem_refs                     21763507                       # number of memory refs
system.cpu0.num_load_insts                   14600612                       # Number of load instructions
system.cpu0.num_store_insts                   7162895                       # Number of store instructions
system.cpu0.num_idle_cycles              2222308283.999156                       # Number of idle cycles
system.cpu0.num_busy_cycles              411228735.000844                       # Number of busy cycles
system.cpu0.not_idle_fraction                0.156151                       # Percentage of non-idle cycles
system.cpu0.idle_fraction                    0.843849                       # Percentage of idle cycles
system.cpu0.Branches                         13755686                       # Number of branches fetched
system.cpu0.op_class::No_OpClass              1546648      1.85%      1.85% # Class of executed instruction
system.cpu0.op_class::IntAlu                 58740475     70.33%     72.18% # Class of executed instruction
system.cpu0.op_class::IntMult                  143929      0.17%     72.35% # Class of executed instruction
system.cpu0.op_class::IntDiv                        0      0.00%     72.35% # Class of executed instruction
system.cpu0.op_class::FloatAdd                  80269      0.10%     72.45% # Class of executed instruction
system.cpu0.op_class::FloatCmp                      0      0.00%     72.45% # Class of executed instruction
system.cpu0.op_class::FloatCvt                      0      0.00%     72.45% # Class of executed instruction
system.cpu0.op_class::FloatMult                     0      0.00%     72.45% # Class of executed instruction
system.cpu0.op_class::FloatDiv                   3601      0.00%     72.45% # Class of executed instruction
system.cpu0.op_class::FloatSqrt                     0      0.00%     72.45% # Class of executed instruction
system.cpu0.op_class::SimdAdd                       0      0.00%     72.45% # Class of executed instruction
system.cpu0.op_class::SimdAddAcc                    0      0.00%     72.45% # Class of executed instruction
system.cpu0.op_class::SimdAlu                       0      0.00%     72.45% # Class of executed instruction
system.cpu0.op_class::SimdCmp                       0      0.00%     72.45% # Class of executed instruction
system.cpu0.op_class::SimdCvt                       0      0.00%     72.45% # Class of executed instruction
system.cpu0.op_class::SimdMisc                      0      0.00%     72.45% # Class of executed instruction
system.cpu0.op_class::SimdMult                      0      0.00%     72.45% # Class of executed instruction
system.cpu0.op_class::SimdMultAcc                   0      0.00%     72.45% # Class of executed instruction
system.cpu0.op_class::SimdShift                     0      0.00%     72.45% # Class of executed instruction
system.cpu0.op_class::SimdShiftAcc                  0      0.00%     72.45% # Class of executed instruction
system.cpu0.op_class::SimdSqrt                      0      0.00%     72.45% # Class of executed instruction
system.cpu0.op_class::SimdFloatAdd                  0      0.00%     72.45% # Class of executed instruction
system.cpu0.op_class::SimdFloatAlu                  0      0.00%     72.45% # Class of executed instruction
system.cpu0.op_class::SimdFloatCmp                  0      0.00%     72.45% # Class of executed instruction
system.cpu0.op_class::SimdFloatCvt                  0      0.00%     72.45% # Class of executed instruction
system.cpu0.op_class::SimdFloatDiv                  0      0.00%     72.45% # Class of executed instruction
system.cpu0.op_class::SimdFloatMisc                 0      0.00%     72.45% # Class of executed instruction
system.cpu0.op_class::SimdFloatMult                 0      0.00%     72.45% # Class of executed instruction
system.cpu0.op_class::SimdFloatMultAcc              0      0.00%     72.45% # Class of executed instruction
system.cpu0.op_class::SimdFloatSqrt                 0      0.00%     72.45% # Class of executed instruction
system.cpu0.op_class::MemRead                14925514     17.87%     90.32% # Class of executed instruction
system.cpu0.op_class::MemWrite                7235570      8.66%     98.98% # Class of executed instruction
system.cpu0.op_class::IprAccess                850538      1.02%    100.00% # Class of executed instruction
system.cpu0.op_class::InstPrefetch                  0      0.00%    100.00% # Class of executed instruction
system.cpu0.op_class::total                  83526544                       # Class of executed instruction
system.cpu0.kern.inst.arm                           0                       # number of arm instructions executed
system.cpu0.kern.inst.quiesce                    7877                       # number of quiesce instructions executed
system.cpu0.kern.inst.hwrei                    187867                       # number of hwrei instructions executed
system.cpu0.kern.ipl_count::0                   64668     39.78%     39.78% # number of times we switched to this ipl
system.cpu0.kern.ipl_count::21                    117      0.07%     39.85% # number of times we switched to this ipl
system.cpu0.kern.ipl_count::22                   2617      1.61%     41.46% # number of times we switched to this ipl
system.cpu0.kern.ipl_count::30                    707      0.43%     41.90% # number of times we switched to this ipl
system.cpu0.kern.ipl_count::31                  94445     58.10%    100.00% # number of times we switched to this ipl
system.cpu0.kern.ipl_count::total              162554                       # number of times we switched to this ipl
system.cpu0.kern.ipl_good::0                    63832     48.95%     48.95% # number of times we switched to this ipl from a different ipl
system.cpu0.kern.ipl_good::21                     117      0.09%     49.04% # number of times we switched to this ipl from a different ipl
system.cpu0.kern.ipl_good::22                    2617      2.01%     51.05% # number of times we switched to this ipl from a different ipl
system.cpu0.kern.ipl_good::30                     707      0.54%     51.59% # number of times we switched to this ipl from a different ipl
system.cpu0.kern.ipl_good::31                   63126     48.41%    100.00% # number of times we switched to this ipl from a different ipl
system.cpu0.kern.ipl_good::total               130399                       # number of times we switched to this ipl from a different ipl
system.cpu0.kern.ipl_ticks::0            2473737612000     93.93%     93.93% # number of cycles we spent at this ipl
system.cpu0.kern.ipl_ticks::21              177097000      0.01%     93.94% # number of cycles we spent at this ipl
system.cpu0.kern.ipl_ticks::22             1643961000      0.06%     94.00% # number of cycles we spent at this ipl
system.cpu0.kern.ipl_ticks::30             1610470000      0.06%     94.06% # number of cycles we spent at this ipl
system.cpu0.kern.ipl_ticks::31           156365023000      5.94%    100.00% # number of cycles we spent at this ipl
system.cpu0.kern.ipl_ticks::total        2633534163000                       # number of cycles we spent at this ipl
system.cpu0.kern.ipl_used::0                 0.987072                       # fraction of swpipl calls that actually changed the ipl
system.cpu0.kern.ipl_used::21                       1                       # fraction of swpipl calls that actually changed the ipl
system.cpu0.kern.ipl_used::22                       1                       # fraction of swpipl calls that actually changed the ipl
system.cpu0.kern.ipl_used::30                       1                       # fraction of swpipl calls that actually changed the ipl
system.cpu0.kern.ipl_used::31                0.668389                       # fraction of swpipl calls that actually changed the ipl
system.cpu0.kern.ipl_used::total             0.802189                       # fraction of swpipl calls that actually changed the ipl
system.cpu0.kern.syscall::2                         6      2.16%      2.16% # number of syscalls executed
system.cpu0.kern.syscall::3                        27      9.71%     11.87% # number of syscalls executed
system.cpu0.kern.syscall::4                         4      1.44%     13.31% # number of syscalls executed
system.cpu0.kern.syscall::6                        31     11.15%     24.46% # number of syscalls executed
system.cpu0.kern.syscall::12                        1      0.36%     24.82% # number of syscalls executed
system.cpu0.kern.syscall::15                        1      0.36%     25.18% # number of syscalls executed
system.cpu0.kern.syscall::17                       15      5.40%     30.58% # number of syscalls executed
system.cpu0.kern.syscall::19                        7      2.52%     33.09% # number of syscalls executed
system.cpu0.kern.syscall::20                        4      1.44%     34.53% # number of syscalls executed
system.cpu0.kern.syscall::23                        4      1.44%     35.97% # number of syscalls executed
system.cpu0.kern.syscall::24                        6      2.16%     38.13% # number of syscalls executed
system.cpu0.kern.syscall::33                       11      3.96%     42.09% # number of syscalls executed
system.cpu0.kern.syscall::45                       50     17.99%     60.07% # number of syscalls executed
system.cpu0.kern.syscall::47                        6      2.16%     62.23% # number of syscalls executed
system.cpu0.kern.syscall::48                        4      1.44%     63.67% # number of syscalls executed
system.cpu0.kern.syscall::54                        6      2.16%     65.83% # number of syscalls executed
system.cpu0.kern.syscall::58                        1      0.36%     66.19% # number of syscalls executed
system.cpu0.kern.syscall::59                        3      1.08%     67.27% # number of syscalls executed
system.cpu0.kern.syscall::71                       54     19.42%     86.69% # number of syscalls executed
system.cpu0.kern.syscall::73                        3      1.08%     87.77% # number of syscalls executed
system.cpu0.kern.syscall::74                       16      5.76%     93.53% # number of syscalls executed
system.cpu0.kern.syscall::87                        1      0.36%     93.88% # number of syscalls executed
system.cpu0.kern.syscall::90                        1      0.36%     94.24% # number of syscalls executed
system.cpu0.kern.syscall::92                        6      2.16%     96.40% # number of syscalls executed
system.cpu0.kern.syscall::97                        2      0.72%     97.12% # number of syscalls executed
system.cpu0.kern.syscall::98                        2      0.72%     97.84% # number of syscalls executed
system.cpu0.kern.syscall::132                       4      1.44%     99.28% # number of syscalls executed
system.cpu0.kern.syscall::144                       1      0.36%     99.64% # number of syscalls executed
system.cpu0.kern.syscall::147                       1      0.36%    100.00% # number of syscalls executed
system.cpu0.kern.syscall::total                   278                       # number of syscalls executed
system.cpu0.kern.callpal::cserve                    1      0.00%      0.00% # number of callpals executed
system.cpu0.kern.callpal::wripir                  801      0.47%      0.47% # number of callpals executed
system.cpu0.kern.callpal::wrmces                    1      0.00%      0.47% # number of callpals executed
system.cpu0.kern.callpal::wrfen                     1      0.00%      0.47% # number of callpals executed
system.cpu0.kern.callpal::wrvptptr                  1      0.00%      0.47% # number of callpals executed
system.cpu0.kern.callpal::swpctx                 4020      2.35%      2.83% # number of callpals executed
system.cpu0.kern.callpal::tbi                      34      0.02%      2.85% # number of callpals executed
system.cpu0.kern.callpal::wrent                     7      0.00%      2.85% # number of callpals executed
system.cpu0.kern.callpal::swpipl               153543     89.93%     92.78% # number of callpals executed
system.cpu0.kern.callpal::rdps                   6165      3.61%     96.39% # number of callpals executed
system.cpu0.kern.callpal::wrkgp                     1      0.00%     96.39% # number of callpals executed
system.cpu0.kern.callpal::wrusp                     7      0.00%     96.40% # number of callpals executed
system.cpu0.kern.callpal::rdusp                     8      0.00%     96.40% # number of callpals executed
system.cpu0.kern.callpal::whami                     2      0.00%     96.40% # number of callpals executed
system.cpu0.kern.callpal::rti                    5570      3.26%     99.66% # number of callpals executed
system.cpu0.kern.callpal::callsys                 407      0.24%     99.90% # number of callpals executed
system.cpu0.kern.callpal::imb                     168      0.10%    100.00% # number of callpals executed
system.cpu0.kern.callpal::total                170737                       # number of callpals executed
system.cpu0.kern.mode_switch::kernel             8789                       # number of protection mode switches
system.cpu0.kern.mode_switch::user               1320                       # number of protection mode switches
system.cpu0.kern.mode_switch::idle                  0                       # number of protection mode switches
system.cpu0.kern.mode_good::kernel               1319                      
system.cpu0.kern.mode_good::user                 1320                      
system.cpu0.kern.mode_good::idle                    0                      
system.cpu0.kern.mode_switch_good::kernel     0.150074                       # fraction of useful protection mode switches
system.cpu0.kern.mode_switch_good::user             1                       # fraction of useful protection mode switches
system.cpu0.kern.mode_switch_good::idle           nan                       # fraction of useful protection mode switches
system.cpu0.kern.mode_switch_good::total     0.261055                       # fraction of useful protection mode switches
system.cpu0.kern.mode_ticks::kernel      2623290250000     99.61%     99.61% # number of ticks spent at the given mode
system.cpu0.kern.mode_ticks::user         10243904000      0.39%    100.00% # number of ticks spent at the given mode
system.cpu0.kern.mode_ticks::idle                   0      0.00%    100.00% # number of ticks spent at the given mode
system.cpu0.kern.swap_context                    4021                       # number of times the context was actually changed
system.tsunami.ethernet.descDMAReads                0                       # Number of descriptors the device read w/ DMA
system.tsunami.ethernet.descDMAWrites               0                       # Number of descriptors the device wrote w/ DMA
system.tsunami.ethernet.descDmaReadBytes            0                       # number of descriptor bytes read w/ DMA
system.tsunami.ethernet.descDmaWriteBytes            0                       # number of descriptor bytes write w/ DMA
system.tsunami.ethernet.postedSwi                   0                       # number of software interrupts posted to CPU
system.tsunami.ethernet.coalescedSwi              nan                       # average number of Swi's coalesced into each post
system.tsunami.ethernet.totalSwi                    0                       # total number of Swi written to ISR
system.tsunami.ethernet.postedRxIdle                0                       # number of rxIdle interrupts posted to CPU
system.tsunami.ethernet.coalescedRxIdle           nan                       # average number of RxIdle's coalesced into each post
system.tsunami.ethernet.totalRxIdle                 0                       # total number of RxIdle written to ISR
system.tsunami.ethernet.postedRxOk                  0                       # number of RxOk interrupts posted to CPU
system.tsunami.ethernet.coalescedRxOk             nan                       # average number of RxOk's coalesced into each post
system.tsunami.ethernet.totalRxOk                   0                       # total number of RxOk written to ISR
system.tsunami.ethernet.postedRxDesc                0                       # number of RxDesc interrupts posted to CPU
system.tsunami.ethernet.coalescedRxDesc           nan                       # average number of RxDesc's coalesced into each post
system.tsunami.ethernet.totalRxDesc                 0                       # total number of RxDesc written to ISR
system.tsunami.ethernet.postedTxOk                  0                       # number of TxOk interrupts posted to CPU
system.tsunami.ethernet.coalescedTxOk             nan                       # average number of TxOk's coalesced into each post
system.tsunami.ethernet.totalTxOk                   0                       # total number of TxOk written to ISR
system.tsunami.ethernet.postedTxIdle                0                       # number of TxIdle interrupts posted to CPU
system.tsunami.ethernet.coalescedTxIdle           nan                       # average number of TxIdle's coalesced into each post
system.tsunami.ethernet.totalTxIdle                 0                       # total number of TxIdle written to ISR
system.tsunami.ethernet.postedTxDesc                0                       # number of TxDesc interrupts posted to CPU
system.tsunami.ethernet.coalescedTxDesc           nan                       # average number of TxDesc's coalesced into each post
system.tsunami.ethernet.totalTxDesc                 0                       # total number of TxDesc written to ISR
system.tsunami.ethernet.postedRxOrn                 0                       # number of RxOrn posted to CPU
system.tsunami.ethernet.coalescedRxOrn            nan                       # average number of RxOrn's coalesced into each post
system.tsunami.ethernet.totalRxOrn                  0                       # total number of RxOrn written to ISR
system.tsunami.ethernet.coalescedTotal            nan                       # average number of interrupts coalesced into each post
system.tsunami.ethernet.postedInterrupts            0                       # number of posts to CPU
system.tsunami.ethernet.droppedPackets              0                       # number of packets dropped
[...]
system.cpu1.icache.ReadReq_avg_mshr_miss_latency::cpu1.inst 52325.661472                       # average ReadReq mshr miss latency
system.cpu1.icache.ReadReq_avg_mshr_miss_latency::total 52325.661472                       # average ReadReq mshr miss latency
system.cpu1.icache.demand_avg_mshr_miss_latency::cpu1.inst 52325.661472                       # average overall mshr miss latency
system.cpu1.icache.demand_avg_mshr_miss_latency::total 52325.661472                       # average overall mshr miss latency
system.cpu1.icache.overall_avg_mshr_miss_latency::cpu1.inst 52325.661472                       # average overall mshr miss latency
system.cpu1.icache.overall_avg_mshr_miss_latency::total 52325.661472                       # average overall mshr miss latency
system.cpu1.icache.no_allocate_misses               0                       # Number of misses that were no-allocate
system.cpu1.dcache.tags.replacements            13366                       # number of replacements
system.cpu1.dcache.tags.tagsinuse          999.615818                       # Cycle average of tags in use
system.cpu1.dcache.tags.total_refs             231121                       # Total number of references to valid blocks.
system.cpu1.dcache.tags.sampled_refs            14390                       # Sample count of references to valid blocks.
system.cpu1.dcache.tags.avg_refs            16.061223                       # Average number of references to valid blocks.
system.cpu1.dcache.tags.warmup_cycle                0                       # Cycle when the warmup percentage was hit.
system.cpu1.dcache.tags.occ_blocks::cpu1.data   999.615818                       # Average occupied blocks per requestor
system.cpu1.dcache.tags.occ_percent::cpu1.data     0.976187                       # Average percentage of cache occupancy
system.cpu1.dcache.tags.occ_percent::total     0.976187                       # Average percentage of cache occupancy
system.cpu1.dcache.tags.occ_task_id_blocks::1024         1024                       # Occupied blocks per task id
system.cpu1.dcache.tags.age_task_id_blocks_1024::0           41                       # Occupied blocks per task id
system.cpu1.dcache.tags.age_task_id_blocks_1024::1          608                       # Occupied blocks per task id
system.cpu1.dcache.tags.age_task_id_blocks_1024::2          360                       # Occupied blocks per task id
system.cpu1.dcache.tags.age_task_id_blocks_1024::3           15                       # Occupied blocks per task id
system.cpu1.dcache.tags.occ_task_id_percent::1024            1                       # Percentage of cache occupancy per task id
system.cpu1.dcache.tags.tag_accesses           443037                       # Number of tag accesses
system.cpu1.dcache.tags.data_accesses          443037                       # Number of data accesses
system.cpu1.dcache.ReadReq_hits::cpu1.data       102488                       # number of ReadReq hits
system.cpu1.dcache.ReadReq_hits::total         102488                       # number of ReadReq hits
system.cpu1.dcache.WriteReq_hits::cpu1.data        95266                       # number of WriteReq hits
system.cpu1.dcache.WriteReq_hits::total         95266                       # number of WriteReq hits
system.cpu1.dcache.LoadLockedReq_hits::cpu1.data         1664                       # number of LoadLockedReq hits
system.cpu1.dcache.LoadLockedReq_hits::total         1664                       # number of LoadLockedReq hits
system.cpu1.dcache.StoreCondReq_hits::cpu1.data         1774                       # number of StoreCondReq hits
system.cpu1.dcache.StoreCondReq_hits::total         1774                       # number of StoreCondReq hits
system.cpu1.dcache.demand_hits::cpu1.data       197754                       # number of demand (read+write) hits
system.cpu1.dcache.demand_hits::total          197754                       # number of demand (read+write) hits
system.cpu1.dcache.overall_hits::cpu1.data       197754                       # number of overall hits
system.cpu1.dcache.overall_hits::total         197754                       # number of overall hits
system.cpu1.dcache.ReadReq_misses::cpu1.data         5950                       # number of ReadReq misses
system.cpu1.dcache.ReadReq_misses::total         5950                       # number of ReadReq misses
system.cpu1.dcache.WriteReq_misses::cpu1.data         7470                       # number of WriteReq misses
system.cpu1.dcache.WriteReq_misses::total         7470                       # number of WriteReq misses
system.cpu1.dcache.LoadLockedReq_misses::cpu1.data          134                       # number of LoadLockedReq misses
system.cpu1.dcache.LoadLockedReq_misses::total          134                       # number of LoadLockedReq misses
system.cpu1.dcache.StoreCondReq_misses::cpu1.data           18                       # number of StoreCondReq misses
system.cpu1.dcache.StoreCondReq_misses::total           18                       # number of StoreCondReq misses
system.cpu1.dcache.demand_misses::cpu1.data        13420                       # number of demand (read+write) misses
system.cpu1.dcache.demand_misses::total         13420                       # number of demand (read+write) misses
system.cpu1.dcache.overall_misses::cpu1.data        13420                       # number of overall misses
system.cpu1.dcache.overall_misses::total        13420                       # number of overall misses
system.cpu1.dcache.ReadReq_miss_latency::cpu1.data    345797750                       # number of ReadReq miss cycles
system.cpu1.dcache.ReadReq_miss_latency::total    345797750                       # number of ReadReq miss cycles
system.cpu1.dcache.WriteReq_miss_latency::cpu1.data    397766732                       # number of WriteReq miss cycles
system.cpu1.dcache.WriteReq_miss_latency::total    397766732                       # number of WriteReq miss cycles
system.cpu1.dcache.LoadLockedReq_miss_latency::cpu1.data      8462000                       # number of LoadLockedReq miss cycles
system.cpu1.dcache.LoadLockedReq_miss_latency::total      8462000                       # number of LoadLockedReq miss cycles
system.cpu1.dcache.StoreCondReq_miss_latency::cpu1.data       143995                       # number of StoreCondReq miss cycles
system.cpu1.dcache.StoreCondReq_miss_latency::total       143995                       # number of StoreCondReq miss cycles
system.cpu1.dcache.demand_miss_latency::cpu1.data    743564482                       # number of demand (read+write) miss cycles
system.cpu1.dcache.demand_miss_latency::total    743564482                       # number of demand (read+write) miss cycles
system.cpu1.dcache.overall_miss_latency::cpu1.data    743564482                       # number of overall miss cycles
system.cpu1.dcache.overall_miss_latency::total    743564482                       # number of overall miss cycles
system.cpu1.dcache.ReadReq_accesses::cpu1.data       108438                       # number of ReadReq accesses(hits+misses)
system.cpu1.dcache.ReadReq_accesses::total       108438                       # number of ReadReq accesses(hits+misses)
system.cpu1.dcache.WriteReq_accesses::cpu1.data       102736                       # number of WriteReq accesses(hits+misses)
system.cpu1.dcache.WriteReq_accesses::total       102736                       # number of WriteReq accesses(hits+misses)
system.cpu1.dcache.LoadLockedReq_accesses::cpu1.data         1798                       # number of LoadLockedReq accesses(hits+misses)
system.cpu1.dcache.LoadLockedReq_accesses::total         1798                       # number of LoadLockedReq accesses(hits+misses)
system.cpu1.dcache.StoreCondReq_accesses::cpu1.data         1792                       # number of StoreCondReq accesses(hits+misses)
system.cpu1.dcache.StoreCondReq_accesses::total         1792                       # number of StoreCondReq accesses(hits+misses)
system.cpu1.dcache.demand_accesses::cpu1.data       211174                       # number of demand (read+write) accesses
system.cpu1.dcache.demand_accesses::total       211174                       # number of demand (read+write) accesses
system.cpu1.dcache.overall_accesses::cpu1.data       211174                       # number of overall (read+write) accesses
system.cpu1.dcache.overall_accesses::total       211174                       # number of overall (read+write) accesses
system.cpu1.dcache.ReadReq_miss_rate::cpu1.data     0.054870                       # miss rate for ReadReq accesses
system.cpu1.dcache.ReadReq_miss_rate::total     0.054870                       # miss rate for ReadReq accesses
system.cpu1.dcache.WriteReq_miss_rate::cpu1.data     0.072711                       # miss rate for WriteReq accesses
system.cpu1.dcache.WriteReq_miss_rate::total     0.072711                       # miss rate for WriteReq accesses
system.cpu1.dcache.LoadLockedReq_miss_rate::cpu1.data     0.074527                       # miss rate for LoadLockedReq accesses
system.cpu1.dcache.LoadLockedReq_miss_rate::total     0.074527                       # miss rate for LoadLockedReq accesses
system.cpu1.dcache.StoreCondReq_miss_rate::cpu1.data     0.010045                       # miss rate for StoreCondReq accesses
system.cpu1.dcache.StoreCondReq_miss_rate::total     0.010045                       # miss rate for StoreCondReq accesses
system.cpu1.dcache.demand_miss_rate::cpu1.data     0.063549                       # miss rate for demand accesses
system.cpu1.dcache.demand_miss_rate::total     0.063549                       # miss rate for demand accesses
system.cpu1.dcache.overall_miss_rate::cpu1.data     0.063549                       # miss rate for overall accesses
system.cpu1.dcache.overall_miss_rate::total     0.063549                       # miss rate for overall accesses
system.cpu1.dcache.ReadReq_avg_miss_latency::cpu1.data 58117.268908                       # average ReadReq miss latency
system.cpu1.dcache.ReadReq_avg_miss_latency::total 58117.268908                       # average ReadReq miss latency
system.cpu1.dcache.WriteReq_avg_miss_latency::cpu1.data 53248.558501                       # average WriteReq miss latency
system.cpu1.dcache.WriteReq_avg_miss_latency::total 53248.558501                       # average WriteReq miss latency
system.cpu1.dcache.LoadLockedReq_avg_miss_latency::cpu1.data 63149.253731                       # average LoadLockedReq miss latency
system.cpu1.dcache.LoadLockedReq_avg_miss_latency::total 63149.253731                       # average LoadLockedReq miss latency
system.cpu1.dcache.StoreCondReq_avg_miss_latency::cpu1.data  7999.722222                       # average StoreCondReq miss latency
system.cpu1.dcache.StoreCondReq_avg_miss_latency::total  7999.722222                       # average StoreCondReq miss latency
system.cpu1.dcache.demand_avg_miss_latency::cpu1.data 55407.189419                       # average overall miss latency
system.cpu1.dcache.demand_avg_miss_latency::total 55407.189419                       # average overall miss latency
system.cpu1.dcache.overall_avg_miss_latency::cpu1.data 55407.189419                       # average overall miss latency
system.cpu1.dcache.overall_avg_miss_latency::total 55407.189419                       # average overall miss latency
system.cpu1.dcache.blocked_cycles::no_mshrs            0                       # number of cycles access was blocked
system.cpu1.dcache.blocked_cycles::no_targets            0                       # number of cycles access was blocked
system.cpu1.dcache.blocked::no_mshrs                0                       # number of cycles access was blocked
system.cpu1.dcache.blocked::no_targets              0                       # number of cycles access was blocked
system.cpu1.dcache.avg_blocked_cycles::no_mshrs          nan                       # average number of cycles each access was blocked
system.cpu1.dcache.avg_blocked_cycles::no_targets          nan                       # average number of cycles each access was blocked
system.cpu1.dcache.fast_writes                      0                       # number of fast writes performed
system.cpu1.dcache.cache_copies                     0                       # number of cache copies performed
system.cpu1.dcache.writebacks::writebacks         7893                       # number of writebacks
system.cpu1.dcache.writebacks::total             7893                       # number of writebacks
system.cpu1.dcache.ReadReq_mshr_misses::cpu1.data         5950                       # number of ReadReq MSHR misses
system.cpu1.dcache.ReadReq_mshr_misses::total         5950                       # number of ReadReq MSHR misses
system.cpu1.dcache.WriteReq_mshr_misses::cpu1.data         7470                       # number of WriteReq MSHR misses
system.cpu1.dcache.WriteReq_mshr_misses::total         7470                       # number of WriteReq MSHR misses
system.cpu1.dcache.LoadLockedReq_mshr_misses::cpu1.data          134                       # number of LoadLockedReq MSHR misses
system.cpu1.dcache.LoadLockedReq_mshr_misses::total          134                       # number of LoadLockedReq MSHR misses
system.cpu1.dcache.StoreCondReq_mshr_misses::cpu1.data           18                       # number of StoreCondReq MSHR misses
system.cpu1.dcache.StoreCondReq_mshr_misses::total           18                       # number of StoreCondReq MSHR misses
system.cpu1.dcache.demand_mshr_misses::cpu1.data        13420                       # number of demand (read+write) MSHR misses
system.cpu1.dcache.demand_mshr_misses::total        13420                       # number of demand (read+write) MSHR misses
system.cpu1.dcache.overall_mshr_misses::cpu1.data        13420                       # number of overall MSHR misses
system.cpu1.dcache.overall_mshr_misses::total        13420                       # number of overall MSHR misses
system.cpu1.dcache.ReadReq_mshr_miss_latency::cpu1.data    317152250                       # number of ReadReq MSHR miss cycles
system.cpu1.dcache.ReadReq_mshr_miss_latency::total    317152250                       # number of ReadReq MSHR miss cycles
system.cpu1.dcache.WriteReq_mshr_miss_latency::cpu1.data    363447268                       # number of WriteReq MSHR miss cycles
system.cpu1.dcache.WriteReq_mshr_miss_latency::total    363447268                       # number of WriteReq MSHR miss cycles
system.cpu1.dcache.LoadLockedReq_mshr_miss_latency::cpu1.data      7806000                       # number of LoadLockedReq MSHR miss cycles
system.cpu1.dcache.LoadLockedReq_mshr_miss_latency::total      7806000                       # number of LoadLockedReq MSHR miss cycles
system.cpu1.dcache.StoreCondReq_mshr_miss_latency::cpu1.data        62005                       # number of StoreCondReq MSHR miss cycles
system.cpu1.dcache.StoreCondReq_mshr_miss_latency::total        62005                       # number of StoreCondReq MSHR miss cycles
system.cpu1.dcache.demand_mshr_miss_latency::cpu1.data    680599518                       # number of demand (read+write) MSHR miss cycles
system.cpu1.dcache.demand_mshr_miss_latency::total    680599518                       # number of demand (read+write) MSHR miss cycles
system.cpu1.dcache.overall_mshr_miss_latency::cpu1.data    680599518                       # number of overall MSHR miss cycles
system.cpu1.dcache.overall_mshr_miss_latency::total    680599518                       # number of overall MSHR miss cycles
system.cpu1.dcache.WriteReq_mshr_uncacheable_latency::cpu1.data      1010000                       # number of WriteReq MSHR uncacheable cycles
system.cpu1.dcache.WriteReq_mshr_uncacheable_latency::total      1010000                       # number of WriteReq MSHR uncacheable cycles
system.cpu1.dcache.overall_mshr_uncacheable_latency::cpu1.data      1010000                       # number of overall MSHR uncacheable cycles
system.cpu1.dcache.overall_mshr_uncacheable_latency::total      1010000                       # number of overall MSHR uncacheable cycles
system.cpu1.dcache.ReadReq_mshr_miss_rate::cpu1.data     0.054870                       # mshr miss rate for ReadReq accesses
system.cpu1.dcache.ReadReq_mshr_miss_rate::total     0.054870                       # mshr miss rate for ReadReq accesses
system.cpu1.dcache.WriteReq_mshr_miss_rate::cpu1.data     0.072711                       # mshr miss rate for WriteReq accesses
system.cpu1.dcache.WriteReq_mshr_miss_rate::total     0.072711                       # mshr miss rate for WriteReq accesses
system.cpu1.dcache.LoadLockedReq_mshr_miss_rate::cpu1.data     0.074527                       # mshr miss rate for LoadLockedReq accesses
system.cpu1.dcache.LoadLockedReq_mshr_miss_rate::total     0.074527                       # mshr miss rate for LoadLockedReq accesses
system.cpu1.dcache.StoreCondReq_mshr_miss_rate::cpu1.data     0.010045                       # mshr miss rate for StoreCondReq accesses
system.cpu1.dcache.StoreCondReq_mshr_miss_rate::total     0.010045                       # mshr miss rate for StoreCondReq accesses
system.cpu1.dcache.demand_mshr_miss_rate::cpu1.data     0.063549                       # mshr miss rate for demand accesses
system.cpu1.dcache.demand_mshr_miss_rate::total     0.063549                       # mshr miss rate for demand accesses
system.cpu1.dcache.overall_mshr_miss_rate::cpu1.data     0.063549                       # mshr miss rate for overall accesses
system.cpu1.dcache.overall_mshr_miss_rate::total     0.063549                       # mshr miss rate for overall accesses
system.cpu1.dcache.ReadReq_avg_mshr_miss_latency::cpu1.data 53302.899160                       # average ReadReq mshr miss latency
system.cpu1.dcache.ReadReq_avg_mshr_miss_latency::total 53302.899160                       # average ReadReq mshr miss latency
system.cpu1.dcache.WriteReq_avg_mshr_miss_latency::cpu1.data 48654.252744                       # average WriteReq mshr miss latency
system.cpu1.dcache.WriteReq_avg_mshr_miss_latency::total 48654.252744                       # average WriteReq mshr miss latency
system.cpu1.dcache.LoadLockedReq_avg_mshr_miss_latency::cpu1.data 58253.731343                       # average LoadLockedReq mshr miss latency
system.cpu1.dcache.LoadLockedReq_avg_mshr_miss_latency::total 58253.731343                       # average LoadLockedReq mshr miss latency
system.cpu1.dcache.StoreCondReq_avg_mshr_miss_latency::cpu1.data  3444.722222                       # average StoreCondReq mshr miss latency
system.cpu1.dcache.StoreCondReq_avg_mshr_miss_latency::total  3444.722222                       # average StoreCondReq mshr miss latency
system.cpu1.dcache.demand_avg_mshr_miss_latency::cpu1.data 50715.314307                       # average overall mshr miss latency
system.cpu1.dcache.demand_avg_mshr_miss_latency::total 50715.314307                       # average overall mshr miss latency
system.cpu1.dcache.overall_avg_mshr_miss_latency::cpu1.data 50715.314307                       # average overall mshr miss latency
system.cpu1.dcache.overall_avg_mshr_miss_latency::total 50715.314307                       # average overall mshr miss latency
system.cpu1.dcache.WriteReq_avg_mshr_uncacheable_latency::cpu1.data          inf                       # average WriteReq mshr uncacheable latency
system.cpu1.dcache.WriteReq_avg_mshr_uncacheable_latency::total          inf                       # average WriteReq mshr uncacheable latency
system.cpu1.dcache.overall_avg_mshr_uncacheable_latency::cpu1.data          inf                       # average overall mshr uncacheable latency
system.cpu1.dcache.overall_avg_mshr_uncacheable_latency::total          inf                       # average overall mshr uncacheable latency
system.cpu1.dcache.no_allocate_misses               0                       # Number of misses that were no-allocate

---------- End Simulation Statistics   ----------
