
---------- Begin Simulation Statistics ----------
sim_seconds                                  0.161509                       # Number of seconds simulated
sim_ticks                                161509234000                       # Number of ticks simulated
final_tick                               4937916596000                       # Number of ticks from beginning of simulation (restored from checkpoints and never reset)
sim_freq                                 1000000000000                       # Frequency of simulated ticks
host_inst_rate                                1905008                       # Simulator instruction rate (inst/s)
host_op_rate                                  3402959                       # Simulator op (including micro ops) rate (op/s)
host_tick_rate                              410861151                       # Simulator tick rate (ticks/s)
host_mem_usage                                1009460                       # Number of bytes of host memory used
host_seconds                                   393.10                       # Real time elapsed on the host
sim_insts                                   748857448                       # Number of instructions simulated
sim_ops                                    1337700820                       # Number of ops (including micro ops) simulated
system.voltage_domain.voltage                       1                       # Voltage in Volts
system.clk_domain.clock                          1000                       # Clock period in ticks
system.mem_ctrls.bytes_read::pc.south_bridge.ide         2512                       # Number of bytes read from this memory
system.mem_ctrls.bytes_read::cpu0.dtb.walker     48073664                       # Number of bytes read from this memory
system.mem_ctrls.bytes_read::cpu0.itb.walker         2040                       # Number of bytes read from this memory
system.mem_ctrls.bytes_read::cpu0.inst     1473002440                       # Number of bytes read from this memory
system.mem_ctrls.bytes_read::cpu0.data      287886823                       # Number of bytes read from this memory
system.mem_ctrls.bytes_read::cpu1.dtb.walker     48073976                       # Number of bytes read from this memory
system.mem_ctrls.bytes_read::cpu1.itb.walker         1536                       # Number of bytes read from this memory
system.mem_ctrls.bytes_read::cpu1.inst     1470848888                       # Number of bytes read from this memory
system.mem_ctrls.bytes_read::cpu1.data      287720284                       # Number of bytes read from this memory
system.mem_ctrls.bytes_read::cpu2.dtb.walker     46133208                       # Number of bytes read from this memory
system.mem_ctrls.bytes_read::cpu2.itb.walker         5472                       # Number of bytes read from this memory
system.mem_ctrls.bytes_read::cpu2.inst     1025335016                       # Number of bytes read from this memory
system.mem_ctrls.bytes_read::cpu2.data      197363306                       # Number of bytes read from this memory
system.mem_ctrls.bytes_read::cpu3.dtb.walker     50153024                       # Number of bytes read from this memory
system.mem_ctrls.bytes_read::cpu3.itb.walker         8064                       # Number of bytes read from this memory
system.mem_ctrls.bytes_read::cpu3.inst     1943208208                       # Number of bytes read from this memory
system.mem_ctrls.bytes_read::cpu3.data      380553630                       # Number of bytes read from this memory
system.mem_ctrls.bytes_read::total         7258372091                       # Number of bytes read from this memory
system.mem_ctrls.bytes_inst_read::cpu0.inst   1473002440                       # Number of instructions bytes read from this memory
system.mem_ctrls.bytes_inst_read::cpu1.inst   1470848888                       # Number of instructions bytes read from this memory
system.mem_ctrls.bytes_inst_read::cpu2.inst   1025335016                       # Number of instructions bytes read from this memory
system.mem_ctrls.bytes_inst_read::cpu3.inst   1943208208                       # Number of instructions bytes read from this memory
system.mem_ctrls.bytes_inst_read::total    5912394552                       # Number of instructions bytes read from this memory
system.mem_ctrls.bytes_written::pc.south_bridge.ide      1286144                       # Number of bytes written to this memory
system.mem_ctrls.bytes_written::cpu0.data     80582930                       # Number of bytes written to this memory
system.mem_ctrls.bytes_written::cpu1.data     80145204                       # Number of bytes written to this memory
system.mem_ctrls.bytes_written::cpu2.data     60537960                       # Number of bytes written to this memory
system.mem_ctrls.bytes_written::cpu3.data    102795812                       # Number of bytes written to this memory
system.mem_ctrls.bytes_written::total       325348050                       # Number of bytes written to this memory
system.mem_ctrls.num_reads::pc.south_bridge.ide          314                       # Number of read requests responded to by this memory
system.mem_ctrls.num_reads::cpu0.dtb.walker      6009208                       # Number of read requests responded to by this memory
system.mem_ctrls.num_reads::cpu0.itb.walker          255                       # Number of read requests responded to by this memory
system.mem_ctrls.num_reads::cpu0.inst       184125305                       # Number of read requests responded to by this memory
system.mem_ctrls.num_reads::cpu0.data        36300739                       # Number of read requests responded to by this memory
system.mem_ctrls.num_reads::cpu1.dtb.walker      6009247                       # Number of read requests responded to by this memory
system.mem_ctrls.num_reads::cpu1.itb.walker          192                       # Number of read requests responded to by this memory
system.mem_ctrls.num_reads::cpu1.inst       183856111                       # Number of read requests responded to by this memory
system.mem_ctrls.num_reads::cpu1.data        36264351                       # Number of read requests responded to by this memory
system.mem_ctrls.num_reads::cpu2.dtb.walker      5766651                       # Number of read requests responded to by this memory
system.mem_ctrls.num_reads::cpu2.itb.walker          684                       # Number of read requests responded to by this memory
system.mem_ctrls.num_reads::cpu2.inst       128166877                       # Number of read requests responded to by this memory
system.mem_ctrls.num_reads::cpu2.data        24963884                       # Number of read requests responded to by this memory
system.mem_ctrls.num_reads::cpu3.dtb.walker      6269128                       # Number of read requests responded to by this memory
system.mem_ctrls.num_reads::cpu3.itb.walker         1008                       # Number of read requests responded to by this memory
system.mem_ctrls.num_reads::cpu3.inst       242901026                       # Number of read requests responded to by this memory
system.mem_ctrls.num_reads::cpu3.data        47964251                       # Number of read requests responded to by this memory
system.mem_ctrls.num_reads::total           908599231                       # Number of read requests responded to by this memory
system.mem_ctrls.num_writes::pc.south_bridge.ide        20096                       # Number of write requests responded to by this memory
system.mem_ctrls.num_writes::cpu0.data       10209356                       # Number of write requests responded to by this memory
system.mem_ctrls.num_writes::cpu1.data       10147896                       # Number of write requests responded to by this memory
system.mem_ctrls.num_writes::cpu2.data        7690392                       # Number of write requests responded to by this memory
system.mem_ctrls.num_writes::cpu3.data       13015957                       # Number of write requests responded to by this memory
system.mem_ctrls.num_writes::total           41083697                       # Number of write requests responded to by this memory
system.mem_ctrls.bw_read::pc.south_bridge.ide        15553                       # Total read bandwidth from this memory (bytes/s)
system.mem_ctrls.bw_read::cpu0.dtb.walker    297652727                       # Total read bandwidth from this memory (bytes/s)
system.mem_ctrls.bw_read::cpu0.itb.walker        12631                       # Total read bandwidth from this memory (bytes/s)
system.mem_ctrls.bw_read::cpu0.inst        9120236679                       # Total read bandwidth from this memory (bytes/s)
system.mem_ctrls.bw_read::cpu0.data        1782479032                       # Total read bandwidth from this memory (bytes/s)
system.mem_ctrls.bw_read::cpu1.dtb.walker    297654659                       # Total read bandwidth from this memory (bytes/s)
system.mem_ctrls.bw_read::cpu1.itb.walker         9510                       # Total read bandwidth from this memory (bytes/s)
system.mem_ctrls.bw_read::cpu1.inst        9106902755                       # Total read bandwidth from this memory (bytes/s)
system.mem_ctrls.bw_read::cpu1.data        1781447889                       # Total read bandwidth from this memory (bytes/s)
system.mem_ctrls.bw_read::cpu2.dtb.walker    285638207                       # Total read bandwidth from this memory (bytes/s)
system.mem_ctrls.bw_read::cpu2.itb.walker        33880                       # Total read bandwidth from this memory (bytes/s)
system.mem_ctrls.bw_read::cpu2.inst        6348460646                       # Total read bandwidth from this memory (bytes/s)
system.mem_ctrls.bw_read::cpu2.data        1221993945                       # Total read bandwidth from this memory (bytes/s)
system.mem_ctrls.bw_read::cpu3.dtb.walker    310527285                       # Total read bandwidth from this memory (bytes/s)
system.mem_ctrls.bw_read::cpu3.itb.walker        49929                       # Total read bandwidth from this memory (bytes/s)
system.mem_ctrls.bw_read::cpu3.inst       12031561044                       # Total read bandwidth from this memory (bytes/s)
system.mem_ctrls.bw_read::cpu3.data        2356234505                       # Total read bandwidth from this memory (bytes/s)
system.mem_ctrls.bw_read::total           44940910877                       # Total read bandwidth from this memory (bytes/s)
system.mem_ctrls.bw_inst_read::cpu0.inst   9120236679                       # Instruction read bandwidth from this memory (bytes/s)
system.mem_ctrls.bw_inst_read::cpu1.inst   9106902755                       # Instruction read bandwidth from this memory (bytes/s)
system.mem_ctrls.bw_inst_read::cpu2.inst   6348460646                       # Instruction read bandwidth from this memory (bytes/s)
system.mem_ctrls.bw_inst_read::cpu3.inst  12031561044                       # Instruction read bandwidth from this memory (bytes/s)
system.mem_ctrls.bw_inst_read::total      36607161124                       # Instruction read bandwidth from this memory (bytes/s)
system.mem_ctrls.bw_write::pc.south_bridge.ide      7963285                       # Write bandwidth from this memory (bytes/s)
system.mem_ctrls.bw_write::cpu0.data        498936983                       # Write bandwidth from this memory (bytes/s)
system.mem_ctrls.bw_write::cpu1.data        496226761                       # Write bandwidth from this memory (bytes/s)
system.mem_ctrls.bw_write::cpu2.data        374826618                       # Write bandwidth from this memory (bytes/s)
system.mem_ctrls.bw_write::cpu3.data        636470185                       # Write bandwidth from this memory (bytes/s)
system.mem_ctrls.bw_write::total           2014423832                       # Write bandwidth from this memory (bytes/s)
system.mem_ctrls.bw_total::pc.south_bridge.ide      7978838                       # Total bandwidth to/from this memory (bytes/s)
system.mem_ctrls.bw_total::cpu0.dtb.walker    297652727                       # Total bandwidth to/from this memory (bytes/s)
system.mem_ctrls.bw_total::cpu0.itb.walker        12631                       # Total bandwidth to/from this memory (bytes/s)
system.mem_ctrls.bw_total::cpu0.inst       9120236679                       # Total bandwidth to/from this memory (bytes/s)
system.mem_ctrls.bw_total::cpu0.data       2281416015                       # Total bandwidth to/from this memory (bytes/s)
system.mem_ctrls.bw_total::cpu1.dtb.walker    297654659                       # Total bandwidth to/from this memory (bytes/s)
system.mem_ctrls.bw_total::cpu1.itb.walker         9510                       # Total bandwidth to/from this memory (bytes/s)
system.mem_ctrls.bw_total::cpu1.inst       9106902755                       # Total bandwidth to/from this memory (bytes/s)
system.mem_ctrls.bw_total::cpu1.data       2277674650                       # Total bandwidth to/from this memory (bytes/s)
system.mem_ctrls.bw_total::cpu2.dtb.walker    285638207                       # Total bandwidth to/from this memory (bytes/s)
system.mem_ctrls.bw_total::cpu2.itb.walker        33880                       # Total bandwidth to/from this memory (bytes/s)
system.mem_ctrls.bw_total::cpu2.inst       6348460646                       # Total bandwidth to/from this memory (bytes/s)
system.mem_ctrls.bw_total::cpu2.data       1596820563                       # Total bandwidth to/from this memory (bytes/s)
system.mem_ctrls.bw_total::cpu3.dtb.walker    310527285                       # Total bandwidth to/from this memory (bytes/s)
system.mem_ctrls.bw_total::cpu3.itb.walker        49929                       # Total bandwidth to/from this memory (bytes/s)
system.mem_ctrls.bw_total::cpu3.inst      12031561044                       # Total bandwidth to/from this memory (bytes/s)
system.mem_ctrls.bw_total::cpu3.data       2992704690                       # Total bandwidth to/from this memory (bytes/s)
system.mem_ctrls.bw_total::total          46955334709                       # Total bandwidth to/from this memory (bytes/s)
system.mem_ctrls.readReqs                           0                       # Number of read requests accepted
system.mem_ctrls.writeReqs                          0                       # Number of write requests accepted
system.mem_ctrls.readBursts                         0                       # Number of DRAM read bursts, including those serviced by the write queue
system.mem_ctrls.writeBursts                        0                       # Number of DRAM write bursts, including those merged in the write queue
system.mem_ctrls.bytesReadDRAM                      0                       # Total number of bytes read from DRAM
system.mem_ctrls.bytesReadWrQ                       0                       # Total number of bytes read from write queue
system.mem_ctrls.bytesWritten                       0                       # Total number of bytes written to DRAM
system.mem_ctrls.bytesReadSys                       0                       # Total read bytes from the system interface side
system.mem_ctrls.bytesWrittenSys                    0                       # Total written bytes from the system interface side
system.mem_ctrls.servicedByWrQ                      0                       # Number of DRAM read bursts serviced by the write queue
system.mem_ctrls.mergedWrBursts                     0                       # Number of DRAM write bursts merged with an existing one
system.mem_ctrls.neitherReadNorWriteReqs            0                       # Number of requests that are neither read nor write
system.mem_ctrls.perBankRdBursts::0                 0                       # Per bank write bursts
system.mem_ctrls.perBankRdBursts::1                 0                       # Per bank write bursts
system.mem_ctrls.perBankRdBursts::2                 0                       # Per bank write bursts
system.mem_ctrls.perBankRdBursts::3                 0                       # Per bank write bursts
system.mem_ctrls.perBankRdBursts::4                 0                       # Per bank write bursts
system.mem_ctrls.perBankRdBursts::5                 0                       # Per bank write bursts
system.mem_ctrls.perBankRdBursts::6                 0                       # Per bank write bursts
system.mem_ctrls.perBankRdBursts::7                 0                       # Per bank write bursts
system.mem_ctrls.perBankRdBursts::8                 0                       # Per bank write bursts
system.mem_ctrls.perBankRdBursts::9                 0                       # Per bank write bursts
system.mem_ctrls.perBankRdBursts::10                0                       # Per bank write bursts
system.mem_ctrls.perBankRdBursts::11                0                       # Per bank write bursts
system.mem_ctrls.perBankRdBursts::12                0                       # Per bank write bursts
system.mem_ctrls.perBankRdBursts::13                0                       # Per bank write bursts
system.mem_ctrls.perBankRdBursts::14                0                       # Per bank write bursts
system.mem_ctrls.perBankRdBursts::15                0                       # Per bank write bursts
system.mem_ctrls.perBankWrBursts::0                 0                       # Per bank write bursts
system.mem_ctrls.perBankWrBursts::1                 0                       # Per bank write bursts
system.mem_ctrls.perBankWrBursts::2                 0                       # Per bank write bursts
system.mem_ctrls.perBankWrBursts::3                 0                       # Per bank write bursts
system.mem_ctrls.perBankWrBursts::4                 0                       # Per bank write bursts
system.mem_ctrls.perBankWrBursts::5                 0                       # Per bank write bursts
system.mem_ctrls.perBankWrBursts::6                 0                       # Per bank write bursts
system.mem_ctrls.perBankWrBursts::7                 0                       # Per bank write bursts
system.mem_ctrls.perBankWrBursts::8                 0                       # Per bank write bursts
system.mem_ctrls.perBankWrBursts::9                 0                       # Per bank write bursts
system.mem_ctrls.perBankWrBursts::10                0                       # Per bank write bursts
system.mem_ctrls.perBankWrBursts::11                0                       # Per bank write bursts
system.mem_ctrls.perBankWrBursts::12                0                       # Per bank write bursts
system.mem_ctrls.perBankWrBursts::13                0                       # Per bank write bursts
system.mem_ctrls.perBankWrBursts::14                0                       # Per bank write bursts
system.mem_ctrls.perBankWrBursts::15                0                       # Per bank write bursts
system.mem_ctrls.numRdRetry                         0                       # Number of times read queue was full causing retry
system.mem_ctrls.numWrRetry                         0                       # Number of times write queue was full causing retry
system.mem_ctrls.totGap                             0                       # Total gap between requests
system.mem_ctrls.readPktSize::0                     0                       # Read request sizes (log2)
system.mem_ctrls.readPktSize::1                     0                       # Read request sizes (log2)
system.mem_ctrls.readPktSize::2                     0                       # Read request sizes (log2)
system.mem_ctrls.readPktSize::3                     0                       # Read request sizes (log2)
system.mem_ctrls.readPktSize::4                     0                       # Read request sizes (log2)
system.mem_ctrls.readPktSize::5                     0                       # Read request sizes (log2)
system.mem_ctrls.readPktSize::6                     0                       # Read request sizes (log2)
system.mem_ctrls.writePktSize::0                    0                       # Write request sizes (log2)
system.mem_ctrls.writePktSize::1                    0                       # Write request sizes (log2)
system.mem_ctrls.writePktSize::2                    0                       # Write request sizes (log2)
system.mem_ctrls.writePktSize::3                    0                       # Write request sizes (log2)
system.mem_ctrls.writePktSize::4                    0                       # Write request sizes (log2)
system.mem_ctrls.writePktSize::5                    0                       # Write request sizes (log2)
system.mem_ctrls.writePktSize::6                    0                       # Write request sizes (log2)
system.mem_ctrls.rdQLenPdf::0                       0                       # What read queue length does an incoming req see
system.mem_ctrls.rdQLenPdf::1                       0                       # What read queue length does an incoming req see
system.mem_ctrls.rdQLenPdf::2                       0                       # What read queue length does an incoming req see
system.mem_ctrls.rdQLenPdf::3                       0                       # What read queue length does an incoming req see
system.mem_ctrls.rdQLenPdf::4                       0                       # What read queue length does an incoming req see
system.mem_ctrls.rdQLenPdf::5                       0                       # What read queue length does an incoming req see
system.mem_ctrls.rdQLenPdf::6                       0                       # What read queue length does an incoming req see
system.mem_ctrls.rdQLenPdf::7                       0                       # What read queue length does an incoming req see
system.mem_ctrls.rdQLenPdf::8                       0                       # What read queue length does an incoming req see
system.mem_ctrls.rdQLenPdf::9                       0                       # What read queue length does an incoming req see
system.mem_ctrls.rdQLenPdf::10                      0                       # What read queue length does an incoming req see
system.mem_ctrls.rdQLenPdf::11                      0                       # What read queue length does an incoming req see
system.mem_ctrls.rdQLenPdf::12                      0                       # What read queue length does an incoming req see
system.mem_ctrls.rdQLenPdf::13                      0                       # What read queue length does an incoming req see
system.mem_ctrls.rdQLenPdf::14                      0                       # What read queue length does an incoming req see
system.mem_ctrls.rdQLenPdf::15                      0                       # What read queue length does an incoming req see
system.mem_ctrls.rdQLenPdf::16                      0                       # What read queue length does an incoming req see
system.mem_ctrls.rdQLenPdf::17                      0                       # What read queue length does an incoming req see
system.mem_ctrls.rdQLenPdf::18                      0                       # What read queue length does an incoming req see
system.mem_ctrls.rdQLenPdf::19                      0                       # What read queue length does an incoming req see
system.mem_ctrls.rdQLenPdf::20                      0                       # What read queue length does an incoming req see
system.mem_ctrls.rdQLenPdf::21                      0                       # What read queue length does an incoming req see
system.mem_ctrls.rdQLenPdf::22                      0                       # What read queue length does an incoming req see
system.mem_ctrls.rdQLenPdf::23                      0                       # What read queue length does an incoming req see
system.mem_ctrls.rdQLenPdf::24                      0                       # What read queue length does an incoming req see
system.mem_ctrls.rdQLenPdf::25                      0                       # What read queue length does an incoming req see
system.mem_ctrls.rdQLenPdf::26                      0                       # What read queue length does an incoming req see
system.mem_ctrls.rdQLenPdf::27                      0                       # What read queue length does an incoming req see
system.mem_ctrls.rdQLenPdf::28                      0                       # What read queue length does an incoming req see
system.mem_ctrls.rdQLenPdf::29                      0                       # What read queue length does an incoming req see
system.mem_ctrls.rdQLenPdf::30                      0                       # What read queue length does an incoming req see
system.mem_ctrls.rdQLenPdf::31                      0                       # What read queue length does an incoming req see
system.mem_ctrls.wrQLenPdf::0                       0                       # What write queue length does an incoming req see
system.mem_ctrls.wrQLenPdf::1                       0                       # What write queue length does an incoming req see
system.mem_ctrls.wrQLenPdf::2                       0                       # What write queue length does an incoming req see
system.mem_ctrls.wrQLenPdf::3                       0                       # What write queue length does an incoming req see
system.mem_ctrls.wrQLenPdf::4                       0                       # What write queue length does an incoming req see
system.mem_ctrls.wrQLenPdf::5                       0                       # What write queue length does an incoming req see
system.mem_ctrls.wrQLenPdf::6                       0                       # What write queue length does an incoming req see
system.mem_ctrls.wrQLenPdf::7                       0                       # What write queue length does an incoming req see
system.mem_ctrls.wrQLenPdf::8                       0                       # What write queue length does an incoming req see
system.mem_ctrls.wrQLenPdf::9                       0                       # What write queue length does an incoming req see
system.mem_ctrls.wrQLenPdf::10                      0                       # What write queue length does an incoming req see
system.mem_ctrls.wrQLenPdf::11                      0                       # What write queue length does an incoming req see
system.mem_ctrls.wrQLenPdf::12                      0                       # What write queue length does an incoming req see
system.mem_ctrls.wrQLenPdf::13                      0                       # What write queue length does an incoming req see
system.mem_ctrls.wrQLenPdf::14                      0                       # What write queue length does an incoming req see
system.mem_ctrls.wrQLenPdf::15                      0                       # What write queue length does an incoming req see
system.mem_ctrls.wrQLenPdf::16                      0                       # What write queue length does an incoming req see
system.mem_ctrls.wrQLenPdf::17                      0                       # What write queue length does an incoming req see
system.mem_ctrls.wrQLenPdf::18                      0                       # What write queue length does an incoming req see
system.mem_ctrls.wrQLenPdf::19                      0                       # What write queue length does an incoming req see
system.mem_ctrls.wrQLenPdf::20                      0                       # What write queue length does an incoming req see
system.mem_ctrls.wrQLenPdf::21                      0                       # What write queue length does an incoming req see
system.mem_ctrls.wrQLenPdf::22                      0                       # What write queue length does an incoming req see
system.mem_ctrls.wrQLenPdf::23                      0                       # What write queue length does an incoming req see
system.mem_ctrls.wrQLenPdf::24                      0                       # What write queue length does an incoming req see
system.mem_ctrls.wrQLenPdf::25                      0                       # What write queue length does an incoming req see
system.mem_ctrls.wrQLenPdf::26                      0                       # What write queue length does an incoming req see
system.mem_ctrls.wrQLenPdf::27                      0                       # What write queue length does an incoming req see
system.mem_ctrls.wrQLenPdf::28                      0                       # What write queue length does an incoming req see
system.mem_ctrls.wrQLenPdf::29                      0                       # What write queue length does an incoming req see
system.mem_ctrls.wrQLenPdf::30                      0                       # What write queue length does an incoming req see
system.mem_ctrls.wrQLenPdf::31                      0                       # What write queue length does an incoming req see
system.mem_ctrls.wrQLenPdf::32                      0                       # What write queue length does an incoming req see
system.mem_ctrls.wrQLenPdf::33                      0                       # What write queue length does an incoming req see
system.mem_ctrls.wrQLenPdf::34                      0                       # What write queue length does an incoming req see
system.mem_ctrls.wrQLenPdf::35                      0                       # What write queue length does an incoming req see
system.mem_ctrls.wrQLenPdf::36                      0                       # What write queue length does an incoming req see
system.mem_ctrls.wrQLenPdf::37                      0                       # What write queue length does an incoming req see
system.mem_ctrls.wrQLenPdf::38                      0                       # What write queue length does an incoming req see
system.mem_ctrls.wrQLenPdf::39                      0                       # What write queue length does an incoming req see
system.mem_ctrls.wrQLenPdf::40                      0                       # What write queue length does an incoming req see
system.mem_ctrls.wrQLenPdf::41                      0                       # What write queue length does an incoming req see
system.mem_ctrls.wrQLenPdf::42                      0                       # What write queue length does an incoming req see
system.mem_ctrls.wrQLenPdf::43                      0                       # What write queue length does an incoming req see
system.mem_ctrls.wrQLenPdf::44                      0                       # What write queue length does an incoming req see
system.mem_ctrls.wrQLenPdf::45                      0                       # What write queue length does an incoming req see
system.mem_ctrls.wrQLenPdf::46                      0                       # What write queue length does an incoming req see
system.mem_ctrls.wrQLenPdf::47                      0                       # What write queue length does an incoming req see
system.mem_ctrls.wrQLenPdf::48                      0                       # What write queue length does an incoming req see
system.mem_ctrls.wrQLenPdf::49                      0                       # What write queue length does an incoming req see
system.mem_ctrls.wrQLenPdf::50                      0                       # What write queue length does an incoming req see
system.mem_ctrls.wrQLenPdf::51                      0                       # What write queue length does an incoming req see
system.mem_ctrls.wrQLenPdf::52                      0                       # What write queue length does an incoming req see
system.mem_ctrls.wrQLenPdf::53                      0                       # What write queue length does an incoming req see
system.mem_ctrls.wrQLenPdf::54                      0                       # What write queue length does an incoming req see
system.mem_ctrls.wrQLenPdf::55                      0                       # What write queue length does an incoming req see
system.mem_ctrls.wrQLenPdf::56                      0                       # What write queue length does an incoming req see
system.mem_ctrls.wrQLenPdf::57                      0                       # What write queue length does an incoming req see
system.mem_ctrls.wrQLenPdf::58                      0                       # What write queue length does an incoming req see
system.mem_ctrls.wrQLenPdf::59                      0                       # What write queue length does an incoming req see
system.mem_ctrls.wrQLenPdf::60                      0                       # What write queue length does an incoming req see
system.mem_ctrls.wrQLenPdf::61                      0                       # What write queue length does an incoming req see
system.mem_ctrls.wrQLenPdf::62                      0                       # What write queue length does an incoming req see
system.mem_ctrls.wrQLenPdf::63                      0                       # What write queue length does an incoming req see
system.mem_ctrls.totQLat                            0                       # Total ticks spent queuing
system.mem_ctrls.totMemAccLat                       0                       # Total ticks spent from burst creation until serviced by the DRAM
system.mem_ctrls.totBusLat                          0                       # Total ticks spent in databus transfers
system.mem_ctrls.avgQLat                          nan                       # Average queueing delay per DRAM burst
system.mem_ctrls.avgBusLat                        nan                       # Average bus latency per DRAM burst
system.mem_ctrls.avgMemAccLat                     nan                       # Average memory access latency per DRAM burst
system.mem_ctrls.avgRdBW                         0.00                       # Average DRAM read bandwidth in MiByte/s
system.mem_ctrls.avgWrBW                         0.00                       # Average achieved write bandwidth in MiByte/s
system.mem_ctrls.avgRdBWSys                      0.00                       # Average system read bandwidth in MiByte/s
system.mem_ctrls.avgWrBWSys                      0.00                       # Average system write bandwidth in MiByte/s
system.mem_ctrls.peakBW                      12800.00                       # Theoretical peak bandwidth in MiByte/s
system.mem_ctrls.busUtil                         0.00                       # Data bus utilization in percentage
system.mem_ctrls.busUtilRead                     0.00                       # Data bus utilization in percentage for reads
system.mem_ctrls.busUtilWrite                    0.00                       # Data bus utilization in percentage for writes
system.mem_ctrls.avgRdQLen                       0.00                       # Average read queue length when enqueuing
system.mem_ctrls.avgWrQLen                       0.00                       # Average write queue length when enqueuing
system.mem_ctrls.readRowHits                        0                       # Number of row buffer hits during reads
system.mem_ctrls.writeRowHits                       0                       # Number of row buffer hits during writes
system.mem_ctrls.readRowHitRate                   nan                       # Row buffer hit rate for reads
system.mem_ctrls.writeRowHitRate                  nan                       # Row buffer hit rate for writes
system.mem_ctrls.avgGap                           nan                       # Average gap between requests
system.mem_ctrls.pageHitRate                      nan                       # Row buffer hit rate, read and write combined
system.mem_ctrls.memoryStateTime::IDLE   156117003750                       # Time in different power states
system.mem_ctrls.memoryStateTime::REF      5393180000                       # Time in different power states
system.mem_ctrls.memoryStateTime::PRE_PDN            0                       # Time in different power states
system.mem_ctrls.memoryStateTime::ACT               0                       # Time in different power states
system.mem_ctrls.memoryStateTime::ACT_PDN            0                       # Time in different power states
system.mem_ctrls.actEnergy::0                       0                       # Energy for activate commands per rank (pJ)
system.mem_ctrls.actEnergy::1                       0                       # Energy for activate commands per rank (pJ)
system.mem_ctrls.preEnergy::0                       0                       # Energy for precharge commands per rank (pJ)
system.mem_ctrls.preEnergy::1                       0                       # Energy for precharge commands per rank (pJ)
system.mem_ctrls.readEnergy::0                      0                       # Energy for read commands per rank (pJ)
system.mem_ctrls.readEnergy::1                      0                       # Energy for read commands per rank (pJ)
system.mem_ctrls.writeEnergy::0                     0                       # Energy for write commands per rank (pJ)
system.mem_ctrls.writeEnergy::1                     0                       # Energy for write commands per rank (pJ)
system.mem_ctrls.refreshEnergy::0        322520615040                       # Energy for refresh commands per rank (pJ)
system.mem_ctrls.refreshEnergy::1        322520615040                       # Energy for refresh commands per rank (pJ)
system.mem_ctrls.actBackEnergy::0        106818782040                       # Energy for active background per rank (pJ)
system.mem_ctrls.actBackEnergy::1        106818782040                       # Energy for active background per rank (pJ)
system.mem_ctrls.preBackEnergy::0        2869048563750                       # Energy for precharge background per rank (pJ)
system.mem_ctrls.preBackEnergy::1        2869048563750                       # Energy for precharge background per rank (pJ)
system.mem_ctrls.totalEnergy::0          3298387960830                       # Total energy per rank (pJ)
system.mem_ctrls.totalEnergy::1          3298387960830                       # Total energy per rank (pJ)
system.mem_ctrls.averagePower::0           667.971742                       # Core power per rank (mW)
system.mem_ctrls.averagePower::1           667.971742                       # Core power per rank (mW)
system.membus.trans_dist::ReadReq           908575731                       # Transaction distribution
system.membus.trans_dist::ReadResp          908575731                       # Transaction distribution
system.membus.trans_dist::WriteReq           41102807                       # Transaction distribution
system.membus.trans_dist::WriteResp          41102807                       # Transaction distribution
system.membus.trans_dist::SoftPFReq             32770                       # Transaction distribution
system.membus.trans_dist::SoftPFResp            32770                       # Transaction distribution
system.membus.trans_dist::MessageReq             6543                       # Transaction distribution
system.membus.trans_dist::MessageResp            6543                       # Transaction distribution
system.membus.pkt_count_system.apicbridge.master::system.cpu0.interrupts.int_slave          454                       # Packet count per connected master and slave (bytes)
system.membus.pkt_count_system.apicbridge.master::system.cpu1.interrupts.int_slave          452                       # Packet count per connected master and slave (bytes)
system.membus.pkt_count_system.apicbridge.master::system.cpu2.interrupts.int_slave          454                       # Packet count per connected master and slave (bytes)
system.membus.pkt_count_system.apicbridge.master::system.cpu3.interrupts.int_slave          454                       # Packet count per connected master and slave (bytes)
system.membus.pkt_count_system.apicbridge.master::total         1814                       # Packet count per connected master and slave (bytes)
system.membus.pkt_count_system.iobridge.master::system.mem_ctrls.port        40820                       # Packet count per connected master and slave (bytes)
system.membus.pkt_count_system.iobridge.master::total        40820                       # Packet count per connected master and slave (bytes)
system.membus.pkt_count_system.cpu0.icache_port::system.mem_ctrls.port    368250610                       # Packet count per connected master and slave (bytes)
system.membus.pkt_count_system.cpu0.icache_port::total    368250610                       # Packet count per connected master and slave (bytes)
system.membus.pkt_count_system.cpu0.dcache_port::system.bridge.slave         2562                       # Packet count per connected master and slave (bytes)
system.membus.pkt_count_system.cpu0.dcache_port::system.cpu0.interrupts.pio        11092                       # Packet count per connected master and slave (bytes)
system.membus.pkt_count_system.cpu0.dcache_port::system.mem_ctrls.port     93020190                       # Packet count per connected master and slave (bytes)
system.membus.pkt_count_system.cpu0.dcache_port::total     93033844                       # Packet count per connected master and slave (bytes)
system.membus.pkt_count_system.cpu0.itb.walker.port::system.mem_ctrls.port          510                       # Packet count per connected master and slave (bytes)
system.membus.pkt_count_system.cpu0.itb.walker.port::total          510                       # Packet count per connected master and slave (bytes)
system.membus.pkt_count_system.cpu0.dtb.walker.port::system.mem_ctrls.port     12018416                       # Packet count per connected master and slave (bytes)
system.membus.pkt_count_system.cpu0.dtb.walker.port::total     12018416                       # Packet count per connected master and slave (bytes)
system.membus.pkt_count_system.cpu0.interrupts.int_master::system.cpu1.interrupts.int_slave         1072                       # Packet count per connected master and slave (bytes)
system.membus.pkt_count_system.cpu0.interrupts.int_master::system.cpu2.interrupts.int_slave          446                       # Packet count per connected master and slave (bytes)
system.membus.pkt_count_system.cpu0.interrupts.int_master::system.cpu3.interrupts.int_slave          876                       # Packet count per connected master and slave (bytes)
system.membus.pkt_count_system.cpu0.interrupts.int_master::total         2394                       # Packet count per connected master and slave (bytes)
system.membus.pkt_count_system.cpu1.icache_port::system.mem_ctrls.port    367712222                       # Packet count per connected master and slave (bytes)
system.membus.pkt_count_system.cpu1.icache_port::total    367712222                       # Packet count per connected master and slave (bytes)
system.membus.pkt_count_system.cpu1.dcache_port::system.bridge.slave         2484                       # Packet count per connected master and slave (bytes)
system.membus.pkt_count_system.cpu1.dcache_port::system.cpu1.interrupts.pio        11358                       # Packet count per connected master and slave (bytes)
system.membus.pkt_count_system.cpu1.dcache_port::system.mem_ctrls.port     92824494                       # Packet count per connected master and slave (bytes)
system.membus.pkt_count_system.cpu1.dcache_port::total     92838336                       # Packet count per connected master and slave (bytes)
system.membus.pkt_count_system.cpu1.itb.walker.port::system.mem_ctrls.port          384                       # Packet count per connected master and slave (bytes)
system.membus.pkt_count_system.cpu1.itb.walker.port::total          384                       # Packet count per connected master and slave (bytes)
system.membus.pkt_count_system.cpu1.dtb.walker.port::system.mem_ctrls.port     12018494                       # Packet count per connected master and slave (bytes)
system.membus.pkt_count_system.cpu1.dtb.walker.port::total     12018494                       # Packet count per connected master and slave (bytes)
system.membus.pkt_count_system.cpu1.interrupts.int_master::system.cpu0.interrupts.int_slave          700                       # Packet count per connected master and slave (bytes)
system.membus.pkt_count_system.cpu1.interrupts.int_master::system.cpu2.interrupts.int_slave          544                       # Packet count per connected master and slave (bytes)
system.membus.pkt_count_system.cpu1.interrupts.int_master::system.cpu3.interrupts.int_slave         1290                       # Packet count per connected master and slave (bytes)
system.membus.pkt_count_system.cpu1.interrupts.int_master::total         2534                       # Packet count per connected master and slave (bytes)
system.membus.pkt_count_system.cpu2.icache_port::system.mem_ctrls.port    256333754                       # Packet count per connected master and slave (bytes)
system.membus.pkt_count_system.cpu2.icache_port::total    256333754                       # Packet count per connected master and slave (bytes)
system.membus.pkt_count_system.cpu2.dcache_port::system.bridge.slave         2532                       # Packet count per connected master and slave (bytes)
system.membus.pkt_count_system.cpu2.dcache_port::system.cpu2.interrupts.pio         7514                       # Packet count per connected master and slave (bytes)
system.membus.pkt_count_system.cpu2.dcache_port::system.mem_ctrls.port     65308552                       # Packet count per connected master and slave (bytes)
system.membus.pkt_count_system.cpu2.dcache_port::total     65318598                       # Packet count per connected master and slave (bytes)
system.membus.pkt_count_system.cpu2.itb.walker.port::system.mem_ctrls.port         1368                       # Packet count per connected master and slave (bytes)
system.membus.pkt_count_system.cpu2.itb.walker.port::total         1368                       # Packet count per connected master and slave (bytes)
system.membus.pkt_count_system.cpu2.dtb.walker.port::system.mem_ctrls.port     11533302                       # Packet count per connected master and slave (bytes)
system.membus.pkt_count_system.cpu2.dtb.walker.port::total     11533302                       # Packet count per connected master and slave (bytes)
system.membus.pkt_count_system.cpu2.interrupts.int_master::system.cpu0.interrupts.int_slave          684                       # Packet count per connected master and slave (bytes)
system.membus.pkt_count_system.cpu2.interrupts.int_master::system.cpu1.interrupts.int_slave          604                       # Packet count per connected master and slave (bytes)
system.membus.pkt_count_system.cpu2.interrupts.int_master::system.cpu3.interrupts.int_slave          610                       # Packet count per connected master and slave (bytes)
system.membus.pkt_count_system.cpu2.interrupts.int_master::total         1898                       # Packet count per connected master and slave (bytes)
system.membus.pkt_count_system.cpu3.icache_port::system.mem_ctrls.port    485802052                       # Packet count per connected master and slave (bytes)
system.membus.pkt_count_system.cpu3.icache_port::total    485802052                       # Packet count per connected master and slave (bytes)
system.membus.pkt_count_system.cpu3.dcache_port::system.bridge.slave         2736                       # Packet count per connected master and slave (bytes)
system.membus.pkt_count_system.cpu3.dcache_port::system.cpu3.interrupts.pio        16482                       # Packet count per connected master and slave (bytes)
system.membus.pkt_count_system.cpu3.dcache_port::system.mem_ctrls.port    121960416                       # Packet count per connected master and slave (bytes)
system.membus.pkt_count_system.cpu3.dcache_port::total    121979634                       # Packet count per connected master and slave (bytes)
system.membus.pkt_count_system.cpu3.itb.walker.port::system.mem_ctrls.port         2016                       # Packet count per connected master and slave (bytes)
system.membus.pkt_count_system.cpu3.itb.walker.port::total         2016                       # Packet count per connected master and slave (bytes)
system.membus.pkt_count_system.cpu3.dtb.walker.port::system.mem_ctrls.port     12538256                       # Packet count per connected master and slave (bytes)
system.membus.pkt_count_system.cpu3.dtb.walker.port::total     12538256                       # Packet count per connected master and slave (bytes)
system.membus.pkt_count_system.cpu3.interrupts.int_master::system.cpu0.interrupts.int_slave         2160                       # Packet count per connected master and slave (bytes)
system.membus.pkt_count_system.cpu3.interrupts.int_master::system.cpu1.interrupts.int_slave         1734                       # Packet count per connected master and slave (bytes)
system.membus.pkt_count_system.cpu3.interrupts.int_master::system.cpu2.interrupts.int_slave          552                       # Packet count per connected master and slave (bytes)
system.membus.pkt_count_system.cpu3.interrupts.int_master::total         4446                       # Packet count per connected master and slave (bytes)
system.membus.pkt_count::total             1899435702                       # Packet count per connected master and slave (bytes)
system.membus.pkt_size_system.apicbridge.master::system.cpu0.interrupts.int_slave          908                       # Cumulative packet size per connected master and slave (bytes)
system.membus.pkt_size_system.apicbridge.master::system.cpu1.interrupts.int_slave          904                       # Cumulative packet size per connected master and slave (bytes)
system.membus.pkt_size_system.apicbridge.master::system.cpu2.interrupts.int_slave          908                       # Cumulative packet size per connected master and slave (bytes)
system.membus.pkt_size_system.apicbridge.master::system.cpu3.interrupts.int_slave          908                       # Cumulative packet size per connected master and slave (bytes)
system.membus.pkt_size_system.apicbridge.master::total         3628                       # Cumulative packet size per connected master and slave (bytes)
system.membus.pkt_size_system.iobridge.master::system.mem_ctrls.port      1288656                       # Cumulative packet size per connected master and slave (bytes)
system.membus.pkt_size_system.iobridge.master::total      1288656                       # Cumulative packet size per connected master and slave (bytes)
system.membus.pkt_size_system.cpu0.icache_port::system.mem_ctrls.port   1473002440                       # Cumulative packet size per connected master and slave (bytes)
system.membus.pkt_size_system.cpu0.icache_port::total   1473002440                       # Cumulative packet size per connected master and slave (bytes)
system.membus.pkt_size_system.cpu0.dcache_port::system.bridge.slave         1305                       # Cumulative packet size per connected master and slave (bytes)
system.membus.pkt_size_system.cpu0.dcache_port::system.cpu0.interrupts.pio        22184                       # Cumulative packet size per connected master and slave (bytes)
system.membus.pkt_size_system.cpu0.dcache_port::system.mem_ctrls.port    368469753                       # Cumulative packet size per connected master and slave (bytes)
system.membus.pkt_size_system.cpu0.dcache_port::total    368493242                       # Cumulative packet size per connected master and slave (bytes)
system.membus.pkt_size_system.cpu0.itb.walker.port::system.mem_ctrls.port         2040                       # Cumulative packet size per connected master and slave (bytes)
system.membus.pkt_size_system.cpu0.itb.walker.port::total         2040                       # Cumulative packet size per connected master and slave (bytes)
system.membus.pkt_size_system.cpu0.dtb.walker.port::system.mem_ctrls.port     48073664                       # Cumulative packet size per connected master and slave (bytes)
system.membus.pkt_size_system.cpu0.dtb.walker.port::total     48073664                       # Cumulative packet size per connected master and slave (bytes)
system.membus.pkt_size_system.cpu0.interrupts.int_master::system.cpu1.interrupts.int_slave         2144                       # Cumulative packet size per connected master and slave (bytes)
system.membus.pkt_size_system.cpu0.interrupts.int_master::system.cpu2.interrupts.int_slave          892                       # Cumulative packet size per connected master and slave (bytes)
system.membus.pkt_size_system.cpu0.interrupts.int_master::system.cpu3.interrupts.int_slave         1752                       # Cumulative packet size per connected master and slave (bytes)
system.membus.pkt_size_system.cpu0.interrupts.int_master::total         4788                       # Cumulative packet size per connected master and slave (bytes)
system.membus.pkt_size_system.cpu1.icache_port::system.mem_ctrls.port   1470848888                       # Cumulative packet size per connected master and slave (bytes)
system.membus.pkt_size_system.cpu1.icache_port::total   1470848888                       # Cumulative packet size per connected master and slave (bytes)
system.membus.pkt_size_system.cpu1.dcache_port::system.bridge.slave         1260                       # Cumulative packet size per connected master and slave (bytes)
system.membus.pkt_size_system.cpu1.dcache_port::system.cpu1.interrupts.pio        22716                       # Cumulative packet size per connected master and slave (bytes)
system.membus.pkt_size_system.cpu1.dcache_port::system.mem_ctrls.port    367865488                       # Cumulative packet size per connected master and slave (bytes)
system.membus.pkt_size_system.cpu1.dcache_port::total    367889464                       # Cumulative packet size per connected master and slave (bytes)
system.membus.pkt_size_system.cpu1.itb.walker.port::system.mem_ctrls.port         1536                       # Cumulative packet size per connected master and slave (bytes)
system.membus.pkt_size_system.cpu1.itb.walker.port::total         1536                       # Cumulative packet size per connected master and slave (bytes)
system.membus.pkt_size_system.cpu1.dtb.walker.port::system.mem_ctrls.port     48073976                       # Cumulative packet size per connected master and slave (bytes)
system.membus.pkt_size_system.cpu1.dtb.walker.port::total     48073976                       # Cumulative packet size per connected master and slave (bytes)
system.membus.pkt_size_system.cpu1.interrupts.int_master::system.cpu0.interrupts.int_slave         1400                       # Cumulative packet size per connected master and slave (bytes)
system.membus.pkt_size_system.cpu1.interrupts.int_master::system.cpu2.interrupts.int_slave         1088                       # Cumulative packet size per connected master and slave (bytes)
system.membus.pkt_size_system.cpu1.interrupts.int_master::system.cpu3.interrupts.int_slave         2580                       # Cumulative packet size per connected master and slave (bytes)
system.membus.pkt_size_system.cpu1.interrupts.int_master::total         5068                       # Cumulative packet size per connected master and slave (bytes)
system.membus.pkt_size_system.cpu2.icache_port::system.mem_ctrls.port   1025335016                       # Cumulative packet size per connected master and slave (bytes)
system.membus.pkt_size_system.cpu2.icache_port::total   1025335016                       # Cumulative packet size per connected master and slave (bytes)
system.membus.pkt_size_system.cpu2.dcache_port::system.bridge.slave         1287                       # Cumulative packet size per connected master and slave (bytes)
system.membus.pkt_size_system.cpu2.dcache_port::system.cpu2.interrupts.pio        15028                       # Cumulative packet size per connected master and slave (bytes)
system.membus.pkt_size_system.cpu2.dcache_port::system.mem_ctrls.port    257901266                       # Cumulative packet size per connected master and slave (bytes)
system.membus.pkt_size_system.cpu2.dcache_port::total    257917581                       # Cumulative packet size per connected master and slave (bytes)
system.membus.pkt_size_system.cpu2.itb.walker.port::system.mem_ctrls.port         5472                       # Cumulative packet size per connected master and slave (bytes)
system.membus.pkt_size_system.cpu2.itb.walker.port::total         5472                       # Cumulative packet size per connected master and slave (bytes)
system.membus.pkt_size_system.cpu2.dtb.walker.port::system.mem_ctrls.port     46133208                       # Cumulative packet size per connected master and slave (bytes)
system.membus.pkt_size_system.cpu2.dtb.walker.port::total     46133208                       # Cumulative packet size per connected master and slave (bytes)
system.membus.pkt_size_system.cpu2.interrupts.int_master::system.cpu0.interrupts.int_slave         1368                       # Cumulative packet size per connected master and slave (bytes)
system.membus.pkt_size_system.cpu2.interrupts.int_master::system.cpu1.interrupts.int_slave         1208                       # Cumulative packet size per connected master and slave (bytes)
system.membus.pkt_size_system.cpu2.interrupts.int_master::system.cpu3.interrupts.int_slave         1220                       # Cumulative packet size per connected master and slave (bytes)
system.membus.pkt_size_system.cpu2.interrupts.int_master::total         3796                       # Cumulative packet size per connected master and slave (bytes)
system.membus.pkt_size_system.cpu3.icache_port::system.mem_ctrls.port   1943208208                       # Cumulative packet size per connected master and slave (bytes)
system.membus.pkt_size_system.cpu3.icache_port::total   1943208208                       # Cumulative packet size per connected master and slave (bytes)
system.membus.pkt_size_system.cpu3.dcache_port::system.bridge.slave         1407                       # Cumulative packet size per connected master and slave (bytes)
system.membus.pkt_size_system.cpu3.dcache_port::system.cpu3.interrupts.pio        32964                       # Cumulative packet size per connected master and slave (bytes)
system.membus.pkt_size_system.cpu3.dcache_port::system.mem_ctrls.port    483349442                       # Cumulative packet size per connected master and slave (bytes)
system.membus.pkt_size_system.cpu3.dcache_port::total    483383813                       # Cumulative packet size per connected master and slave (bytes)
system.membus.pkt_size_system.cpu3.itb.walker.port::system.mem_ctrls.port         8064                       # Cumulative packet size per connected master and slave (bytes)
system.membus.pkt_size_system.cpu3.itb.walker.port::total         8064                       # Cumulative packet size per connected master and slave (bytes)
system.membus.pkt_size_system.cpu3.dtb.walker.port::system.mem_ctrls.port     50153024                       # Cumulative packet size per connected master and slave (bytes)
system.membus.pkt_size_system.cpu3.dtb.walker.port::total     50153024                       # Cumulative packet size per connected master and slave (bytes)
system.membus.pkt_size_system.cpu3.interrupts.int_master::system.cpu0.interrupts.int_slave         4320                       # Cumulative packet size per connected master and slave (bytes)
system.membus.pkt_size_system.cpu3.interrupts.int_master::system.cpu1.interrupts.int_slave         3468                       # Cumulative packet size per connected master and slave (bytes)
system.membus.pkt_size_system.cpu3.interrupts.int_master::system.cpu2.interrupts.int_slave         1104                       # Cumulative packet size per connected master and slave (bytes)
system.membus.pkt_size_system.cpu3.interrupts.int_master::total         8892                       # Cumulative packet size per connected master and slave (bytes)
system.membus.pkt_size::total              7583844464                       # Cumulative packet size per connected master and slave (bytes)
system.membus.snoops                                0                       # Total snoops (count)
system.membus.snoop_fanout::samples         949682928                       # Request fanout histogram
system.membus.snoop_fanout::mean            11.778228                       # Request fanout histogram
system.membus.snoop_fanout::stdev            0.415439                       # Request fanout histogram
system.membus.snoop_fanout::underflows              0      0.00%      0.00% # Request fanout histogram
system.membus.snoop_fanout::0                       0      0.00%      0.00% # Request fanout histogram
system.membus.snoop_fanout::1                       0      0.00%      0.00% # Request fanout histogram
system.membus.snoop_fanout::2                       0      0.00%      0.00% # Request fanout histogram
system.membus.snoop_fanout::3                       0      0.00%      0.00% # Request fanout histogram
system.membus.snoop_fanout::4                       0      0.00%      0.00% # Request fanout histogram
system.membus.snoop_fanout::5                       0      0.00%      0.00% # Request fanout histogram
system.membus.snoop_fanout::6                       0      0.00%      0.00% # Request fanout histogram
system.membus.snoop_fanout::7                       0      0.00%      0.00% # Request fanout histogram
system.membus.snoop_fanout::8                       0      0.00%      0.00% # Request fanout histogram
system.membus.snoop_fanout::9                       0      0.00%      0.00% # Request fanout histogram
system.membus.snoop_fanout::10                      0      0.00%      0.00% # Request fanout histogram
system.membus.snoop_fanout::11              210613199     22.18%     22.18% # Request fanout histogram
system.membus.snoop_fanout::12              739069729     77.82%    100.00% # Request fanout histogram
system.membus.snoop_fanout::overflows               0      0.00%    100.00% # Request fanout histogram
system.membus.snoop_fanout::min_value              11                       # Request fanout histogram
system.membus.snoop_fanout::max_value              12                       # Request fanout histogram
system.membus.snoop_fanout::total           949682928                       # Request fanout histogram
system.cpu_voltage_domain.voltage                   1                       # Voltage in Volts
system.pc.south_bridge.ide.disks0.dma_read_full_pages            0                       # Number of full page size DMA reads (not PRD).
system.pc.south_bridge.ide.disks0.dma_read_bytes            0                       # Number of bytes transfered via DMA reads (not PRD).
system.pc.south_bridge.ide.disks0.dma_read_txs            0                       # Number of DMA read transactions (not PRD).
system.pc.south_bridge.ide.disks0.dma_write_full_pages          314                       # Number of full page size DMA writes.
system.pc.south_bridge.ide.disks0.dma_write_bytes      1286144                       # Number of bytes transfered via DMA writes.
system.pc.south_bridge.ide.disks0.dma_write_txs          314                       # Number of DMA write transactions.
system.pc.south_bridge.ide.disks1.dma_read_full_pages            0                       # Number of full page size DMA reads (not PRD).
system.pc.south_bridge.ide.disks1.dma_read_bytes            0                       # Number of bytes transfered via DMA reads (not PRD).
system.pc.south_bridge.ide.disks1.dma_read_txs            0                       # Number of DMA read transactions (not PRD).
system.pc.south_bridge.ide.disks1.dma_write_full_pages            0                       # Number of full page size DMA writes.
system.pc.south_bridge.ide.disks1.dma_write_bytes            0                       # Number of bytes transfered via DMA writes.
system.pc.south_bridge.ide.disks1.dma_write_txs            0                       # Number of DMA write transactions.
system.iobus.trans_dist::ReadReq                 4078                       # Transaction distribution
system.iobus.trans_dist::ReadResp                4078                       # Transaction distribution
system.iobus.trans_dist::WriteReq               21489                       # Transaction distribution
system.iobus.trans_dist::WriteResp              21489                       # Transaction distribution
system.iobus.trans_dist::MessageReq               907                       # Transaction distribution
system.iobus.trans_dist::MessageResp              907                       # Transaction distribution
system.iobus.pkt_count_system.bridge.master::system.pc.south_bridge.ide.pio         1564                       # Packet count per connected master and slave (bytes)
system.iobus.pkt_count_system.bridge.master::system.pc.com_1.pio         8750                       # Packet count per connected master and slave (bytes)
system.iobus.pkt_count_system.bridge.master::total        10314                       # Packet count per connected master and slave (bytes)
system.iobus.pkt_count_system.pc.south_bridge.ide.dma::system.iobridge.slave        40820                       # Packet count per connected master and slave (bytes)
system.iobus.pkt_count_system.pc.south_bridge.ide.dma::total        40820                       # Packet count per connected master and slave (bytes)
system.iobus.pkt_count_system.pc.south_bridge.io_apic.int_master::system.apicbridge.slave         1814                       # Packet count per connected master and slave (bytes)
system.iobus.pkt_count_system.pc.south_bridge.io_apic.int_master::total         1814                       # Packet count per connected master and slave (bytes)
system.iobus.pkt_count::total                   52948                       # Packet count per connected master and slave (bytes)
system.iobus.pkt_size_system.bridge.master::system.pc.south_bridge.ide.pio          884                       # Cumulative packet size per connected master and slave (bytes)
system.iobus.pkt_size_system.bridge.master::system.pc.com_1.pio         4375                       # Cumulative packet size per connected master and slave (bytes)
system.iobus.pkt_size_system.bridge.master::total         5259                       # Cumulative packet size per connected master and slave (bytes)
system.iobus.pkt_size_system.pc.south_bridge.ide.dma::system.iobridge.slave      1288656                       # Cumulative packet size per connected master and slave (bytes)
system.iobus.pkt_size_system.pc.south_bridge.ide.dma::total      1288656                       # Cumulative packet size per connected master and slave (bytes)
system.iobus.pkt_size_system.pc.south_bridge.io_apic.int_master::system.apicbridge.slave         3628                       # Cumulative packet size per connected master and slave (bytes)
system.iobus.pkt_size_system.pc.south_bridge.io_apic.int_master::total         3628                       # Cumulative packet size per connected master and slave (bytes)
system.iobus.pkt_size::total                  1297543                       # Cumulative packet size per connected master and slave (bytes)
system.cpu_clk_domain.clock                       500                       # Clock period in ticks
system.cpu0.apic_clk_domain.clock                8000                       # Clock period in ticks
system.cpu0.numCycles                       319023380                       # number of cpu cycles simulated
system.cpu0.numWorkItemsStarted                     0                       # number of work items this cpu started
system.cpu0.numWorkItemsCompleted                   0                       # number of work items this cpu completed
system.cpu0.committedInsts                  124615115                       # Number of instructions committed
system.cpu0.committedOps                    177752686                       # Number of ops (including micro ops) committed
system.cpu0.num_int_alu_accesses            107742228                       # Number of integer alu accesses
system.cpu0.num_fp_alu_accesses             111921184                       # Number of float alu accesses
system.cpu0.num_func_calls                     361646                       # number of times a function call or return occured
system.cpu0.num_conditional_control_insts      6168859                       # number of instructions that are conditional controls
system.cpu0.num_int_insts                   107742228                       # number of integer instructions
system.cpu0.num_fp_insts                    111921184                       # number of float instructions
system.cpu0.num_int_register_reads          230194497                       # number of times the integer registers were read
system.cpu0.num_int_register_writes          56523172                       # number of times the integer registers were written
system.cpu0.num_fp_register_reads           203342049                       # number of times the floating registers were read
system.cpu0.num_fp_register_writes          104046172                       # number of times the floating registers were written
system.cpu0.num_cc_register_reads            33625259                       # number of times the CC registers were read
system.cpu0.num_cc_register_writes           39265998                       # number of times the CC registers were written
system.cpu0.num_mem_refs                     46515911                       # number of memory refs
system.cpu0.num_load_insts                   36300661                       # Number of load instructions
system.cpu0.num_store_insts                  10215250                       # Number of store instructions
system.cpu0.num_idle_cycles              84803710.919757                       # Number of idle cycles
system.cpu0.num_busy_cycles              234219669.080243                       # Number of busy cycles
system.cpu0.not_idle_fraction                0.734177                       # Percentage of non-idle cycles
system.cpu0.idle_fraction                    0.265823                       # Percentage of idle cycles
system.cpu0.Branches                          6738396                       # Number of branches fetched
system.cpu0.op_class::No_OpClass               184101      0.10%      0.10% # Class of executed instruction
system.cpu0.op_class::IntAlu                 68614276     38.60%     38.70% # Class of executed instruction
system.cpu0.op_class::IntMult                   22180      0.01%     38.72% # Class of executed instruction
system.cpu0.op_class::IntDiv                     8950      0.01%     38.72% # Class of executed instruction
system.cpu0.op_class::FloatAdd               62408932     35.11%     73.83% # Class of executed instruction
system.cpu0.op_class::FloatCmp                      0      0.00%     73.83% # Class of executed instruction
system.cpu0.op_class::FloatCvt                      0      0.00%     73.83% # Class of executed instruction
system.cpu0.op_class::FloatMult                     0      0.00%     73.83% # Class of executed instruction
system.cpu0.op_class::FloatDiv                      0      0.00%     73.83% # Class of executed instruction
system.cpu0.op_class::FloatSqrt                     0      0.00%     73.83% # Class of executed instruction
system.cpu0.op_class::SimdAdd                       0      0.00%     73.83% # Class of executed instruction
system.cpu0.op_class::SimdAddAcc                    0      0.00%     73.83% # Class of executed instruction
system.cpu0.op_class::SimdAlu                       0      0.00%     73.83% # Class of executed instruction
system.cpu0.op_class::SimdCmp                       0      0.00%     73.83% # Class of executed instruction
system.cpu0.op_class::SimdCvt                       0      0.00%     73.83% # Class of executed instruction
system.cpu0.op_class::SimdMisc                      0      0.00%     73.83% # Class of executed instruction
system.cpu0.op_class::SimdMult                      0      0.00%     73.83% # Class of executed instruction
system.cpu0.op_class::SimdMultAcc                   0      0.00%     73.83% # Class of executed instruction
system.cpu0.op_class::SimdShift                     0      0.00%     73.83% # Class of executed instruction
system.cpu0.op_class::SimdShiftAcc                  0      0.00%     73.83% # Class of executed instruction
system.cpu0.op_class::SimdSqrt                      0      0.00%     73.83% # Class of executed instruction
system.cpu0.op_class::SimdFloatAdd                  0      0.00%     73.83% # Class of executed instruction
system.cpu0.op_class::SimdFloatAlu                  0      0.00%     73.83% # Class of executed instruction
system.cpu0.op_class::SimdFloatCmp                  0      0.00%     73.83% # Class of executed instruction
system.cpu0.op_class::SimdFloatCvt                  0      0.00%     73.83% # Class of executed instruction
system.cpu0.op_class::SimdFloatDiv                  0      0.00%     73.83% # Class of executed instruction
system.cpu0.op_class::SimdFloatMisc                 0      0.00%     73.83% # Class of executed instruction
system.cpu0.op_class::SimdFloatMult                 0      0.00%     73.83% # Class of executed instruction
system.cpu0.op_class::SimdFloatMultAcc              0      0.00%     73.83% # Class of executed instruction
system.cpu0.op_class::SimdFloatSqrt                 0      0.00%     73.83% # Class of executed instruction
system.cpu0.op_class::MemRead                36300661     20.42%     94.25% # Class of executed instruction
system.cpu0.op_class::MemWrite               10215250      5.75%    100.00% # Class of executed instruction
system.cpu0.op_class::IprAccess                     0      0.00%    100.00% # Class of executed instruction
system.cpu0.op_class::InstPrefetch                  0      0.00%    100.00% # Class of executed instruction
system.cpu0.op_class::total                 177754350                       # Class of executed instruction
system.cpu0.kern.inst.arm                           0                       # number of arm instructions executed
system.cpu0.kern.inst.quiesce                      16                       # number of quiesce instructions executed
system.cpu1.apic_clk_domain.clock                8000                       # Clock period in ticks
system.cpu1.numCycles                       319183957                       # number of cpu cycles simulated
system.cpu1.numWorkItemsStarted                     0                       # number of work items this cpu started
system.cpu1.numWorkItemsCompleted                   0                       # number of work items this cpu completed
system.cpu1.committedInsts                  124393435                       # Number of instructions committed
system.cpu1.committedOps                    177294448                       # Number of ops (including micro ops) committed
system.cpu1.num_int_alu_accesses            107230979                       # Number of integer alu accesses
system.cpu1.num_fp_alu_accesses             112038635                       # Number of float alu accesses
system.cpu1.num_func_calls                     347490                       # number of times a function call or return occured
system.cpu1.num_conditional_control_insts      6131993                       # number of instructions that are conditional controls
system.cpu1.num_int_insts                   107230979                       # number of integer instructions
system.cpu1.num_fp_insts                    112038635                       # number of float instructions
system.cpu1.num_int_register_reads          229159462                       # number of times the integer registers were read
system.cpu1.num_int_register_writes          56082211                       # number of times the integer registers were written
system.cpu1.num_fp_register_reads           203547175                       # number of times the floating registers were read
system.cpu1.num_fp_register_writes          104155957                       # number of times the floating registers were written
system.cpu1.num_cc_register_reads            33365644                       # number of times the CC registers were read
system.cpu1.num_cc_register_writes           39076069                       # number of times the CC registers were written
system.cpu1.num_mem_refs                     46418201                       # number of memory refs
system.cpu1.num_load_insts                   36264387                       # Number of load instructions
system.cpu1.num_store_insts                  10153814                       # Number of store instructions
system.cpu1.num_idle_cycles              85341659.825006                       # Number of idle cycles
system.cpu1.num_busy_cycles              233842297.174994                       # Number of busy cycles
system.cpu1.not_idle_fraction                0.732625                       # Percentage of non-idle cycles
system.cpu1.idle_fraction                    0.267375                       # Percentage of idle cycles
system.cpu1.Branches                          6678188                       # Number of branches fetched
system.cpu1.op_class::No_OpClass               180741      0.10%      0.10% # Class of executed instruction
system.cpu1.op_class::IntAlu                 68185048     38.46%     38.56% # Class of executed instruction
system.cpu1.op_class::IntMult                   20561      0.01%     38.57% # Class of executed instruction
system.cpu1.op_class::IntDiv                     9117      0.01%     38.58% # Class of executed instruction
system.cpu1.op_class::FloatAdd               62482421     35.24%     73.82% # Class of executed instruction
system.cpu1.op_class::FloatCmp                      0      0.00%     73.82% # Class of executed instruction
system.cpu1.op_class::FloatCvt                      0      0.00%     73.82% # Class of executed instruction
system.cpu1.op_class::FloatMult                     0      0.00%     73.82% # Class of executed instruction
system.cpu1.op_class::FloatDiv                      0      0.00%     73.82% # Class of executed instruction
system.cpu1.op_class::FloatSqrt                     0      0.00%     73.82% # Class of executed instruction
system.cpu1.op_class::SimdAdd                       0      0.00%     73.82% # Class of executed instruction
system.cpu1.op_class::SimdAddAcc                    0      0.00%     73.82% # Class of executed instruction
system.cpu1.op_class::SimdAlu                       0      0.00%     73.82% # Class of executed instruction
system.cpu1.op_class::SimdCmp                       0      0.00%     73.82% # Class of executed instruction
system.cpu1.op_class::SimdCvt                       0      0.00%     73.82% # Class of executed instruction
system.cpu1.op_class::SimdMisc                      0      0.00%     73.82% # Class of executed instruction
system.cpu1.op_class::SimdMult                      0      0.00%     73.82% # Class of executed instruction
system.cpu1.op_class::SimdMultAcc                   0      0.00%     73.82% # Class of executed instruction
system.cpu1.op_class::SimdShift                     0      0.00%     73.82% # Class of executed instruction
system.cpu1.op_class::SimdShiftAcc                  0      0.00%     73.82% # Class of executed instruction
system.cpu1.op_class::SimdSqrt                      0      0.00%     73.82% # Class of executed instruction
system.cpu1.op_class::SimdFloatAdd                  0      0.00%     73.82% # Class of executed instruction
system.cpu1.op_class::SimdFloatAlu                  0      0.00%     73.82% # Class of executed instruction
system.cpu1.op_class::SimdFloatCmp                  0      0.00%     73.82% # Class of executed instruction
system.cpu1.op_class::SimdFloatCvt                  0      0.00%     73.82% # Class of executed instruction
system.cpu1.op_class::SimdFloatDiv                  0      0.00%     73.82% # Class of executed instruction
[...]
system.cpu1.num_conditional_control_insts      6145911                       # number of instructions that are conditional controls
system.cpu1.num_int_insts                   107407685                       # number of integer instructions
system.cpu1.num_fp_insts                    112038792                       # number of float instructions
system.cpu1.num_int_register_reads          229528097                       # number of times the integer registers were read
system.cpu1.num_int_register_writes          56218097                       # number of times the integer registers were written
system.cpu1.num_fp_register_reads           203547422                       # number of times the floating registers were read
system.cpu1.num_fp_register_writes          104156078                       # number of times the floating registers were written
system.cpu1.num_cc_register_reads            33461540                       # number of times the CC registers were read
system.cpu1.num_cc_register_writes           39141448                       # number of times the CC registers were written
system.cpu1.num_mem_refs                     46463708                       # number of memory refs
system.cpu1.num_load_insts                   36286781                       # Number of load instructions
system.cpu1.num_store_insts                  10176927                       # Number of store instructions
system.cpu1.num_idle_cycles              86681098.188981                       # Number of idle cycles
system.cpu1.num_busy_cycles              237190509.811019                       # Number of busy cycles
system.cpu1.not_idle_fraction                0.732360                       # Percentage of non-idle cycles
system.cpu1.idle_fraction                    0.267640                       # Percentage of idle cycles
system.cpu1.Branches                          6697200                       # Number of branches fetched
system.cpu1.op_class::No_OpClass               181955      0.10%      0.10% # Class of executed instruction
system.cpu1.op_class::IntAlu                 68317323     38.49%     38.60% # Class of executed instruction
system.cpu1.op_class::IntMult                   20831      0.01%     38.61% # Class of executed instruction
system.cpu1.op_class::IntDiv                     9148      0.01%     38.61% # Class of executed instruction
system.cpu1.op_class::FloatAdd               62482525     35.21%     73.82% # Class of executed instruction
system.cpu1.op_class::FloatCmp                      0      0.00%     73.82% # Class of executed instruction
system.cpu1.op_class::FloatCvt                      0      0.00%     73.82% # Class of executed instruction
system.cpu1.op_class::FloatMult                     0      0.00%     73.82% # Class of executed instruction
system.cpu1.op_class::FloatDiv                      0      0.00%     73.82% # Class of executed instruction
system.cpu1.op_class::FloatSqrt                     0      0.00%     73.82% # Class of executed instruction
system.cpu1.op_class::SimdAdd                       0      0.00%     73.82% # Class of executed instruction
system.cpu1.op_class::SimdAddAcc                    0      0.00%     73.82% # Class of executed instruction
system.cpu1.op_class::SimdAlu                       0      0.00%     73.82% # Class of executed instruction
system.cpu1.op_class::SimdCmp                       0      0.00%     73.82% # Class of executed instruction
system.cpu1.op_class::SimdCvt                       0      0.00%     73.82% # Class of executed instruction
system.cpu1.op_class::SimdMisc                      0      0.00%     73.82% # Class of executed instruction
system.cpu1.op_class::SimdMult                      0      0.00%     73.82% # Class of executed instruction
system.cpu1.op_class::SimdMultAcc                   0      0.00%     73.82% # Class of executed instruction
system.cpu1.op_class::SimdShift                     0      0.00%     73.82% # Class of executed instruction
system.cpu1.op_class::SimdShiftAcc                  0      0.00%     73.82% # Class of executed instruction
system.cpu1.op_class::SimdSqrt                      0      0.00%     73.82% # Class of executed instruction
system.cpu1.op_class::SimdFloatAdd                  0      0.00%     73.82% # Class of executed instruction
system.cpu1.op_class::SimdFloatAlu                  0      0.00%     73.82% # Class of executed instruction
system.cpu1.op_class::SimdFloatCmp                  0      0.00%     73.82% # Class of executed instruction
system.cpu1.op_class::SimdFloatCvt                  0      0.00%     73.82% # Class of executed instruction
system.cpu1.op_class::SimdFloatDiv                  0      0.00%     73.82% # Class of executed instruction
system.cpu1.op_class::SimdFloatMisc                 0      0.00%     73.82% # Class of executed instruction
system.cpu1.op_class::SimdFloatMult                 0      0.00%     73.82% # Class of executed instruction
system.cpu1.op_class::SimdFloatMultAcc              0      0.00%     73.82% # Class of executed instruction
system.cpu1.op_class::SimdFloatSqrt                 0      0.00%     73.82% # Class of executed instruction
system.cpu1.op_class::MemRead                36286781     20.45%     94.27% # Class of executed instruction
system.cpu1.op_class::MemWrite               10176927      5.73%    100.00% # Class of executed instruction
system.cpu1.op_class::IprAccess                     0      0.00%    100.00% # Class of executed instruction
system.cpu1.op_class::InstPrefetch                  0      0.00%    100.00% # Class of executed instruction
system.cpu1.op_class::total                 177475490                       # Class of executed instruction
system.cpu1.kern.inst.arm                           0                       # number of arm instructions executed
system.cpu1.kern.inst.quiesce                      12                       # number of quiesce instructions executed
system.cpu2.apic_clk_domain.clock                8000                       # Clock period in ticks
system.cpu2.numCycles                       323188277                       # number of cpu cycles simulated
system.cpu2.numWorkItemsStarted                     0                       # number of work items this cpu started
system.cpu2.numWorkItemsCompleted                   0                       # number of work items this cpu completed
system.cpu2.committedInsts                   87141133                       # Number of instructions committed
system.cpu2.committedOps                    124916048                       # Number of ops (including micro ops) committed
system.cpu2.num_int_alu_accesses             77988729                       # Number of integer alu accesses
system.cpu2.num_fp_alu_accesses              75624001                       # Number of float alu accesses
system.cpu2.num_func_calls                     273779                       # number of times a function call or return occured
system.cpu2.num_conditional_control_insts      4861465                       # number of instructions that are conditional controls
system.cpu2.num_int_insts                    77988729                       # number of integer instructions
system.cpu2.num_fp_insts                     75624001                       # number of float instructions
system.cpu2.num_int_register_reads          164881846                       # number of times the integer registers were read
system.cpu2.num_int_register_writes          41918462                       # number of times the integer registers were written
system.cpu2.num_fp_register_reads           136471969                       # number of times the floating registers were read
system.cpu2.num_fp_register_writes           69854805                       # number of times the floating registers were written
system.cpu2.num_cc_register_reads            26992716                       # number of times the CC registers were read
system.cpu2.num_cc_register_writes           29222129                       # number of times the CC registers were written
system.cpu2.num_mem_refs                     32658876                       # number of memory refs
system.cpu2.num_load_insts                   24964888                       # Number of load instructions
system.cpu2.num_store_insts                   7693988                       # Number of store instructions
system.cpu2.num_idle_cycles              157467588.885376                       # Number of idle cycles
system.cpu2.num_busy_cycles              165720688.114624                       # Number of busy cycles
system.cpu2.not_idle_fraction                0.512768                       # Percentage of non-idle cycles
system.cpu2.idle_fraction                    0.487232                       # Percentage of idle cycles
system.cpu2.Branches                          5299398                       # Number of branches fetched
system.cpu2.op_class::No_OpClass               123614      0.10%      0.10% # Class of executed instruction
system.cpu2.op_class::IntAlu                 51370931     41.12%     41.22% # Class of executed instruction
system.cpu2.op_class::IntMult                   38241      0.03%     41.25% # Class of executed instruction
system.cpu2.op_class::IntDiv                     9251      0.01%     41.26% # Class of executed instruction
system.cpu2.op_class::FloatAdd               40716450     32.59%     73.86% # Class of executed instruction
system.cpu2.op_class::FloatCmp                      0      0.00%     73.86% # Class of executed instruction
system.cpu2.op_class::FloatCvt                      0      0.00%     73.86% # Class of executed instruction
system.cpu2.op_class::FloatMult                     0      0.00%     73.86% # Class of executed instruction
system.cpu2.op_class::FloatDiv                      0      0.00%     73.86% # Class of executed instruction
system.cpu2.op_class::FloatSqrt                     0      0.00%     73.86% # Class of executed instruction
system.cpu2.op_class::SimdAdd                       0      0.00%     73.86% # Class of executed instruction
system.cpu2.op_class::SimdAddAcc                    0      0.00%     73.86% # Class of executed instruction
system.cpu2.op_class::SimdAlu                       0      0.00%     73.86% # Class of executed instruction
system.cpu2.op_class::SimdCmp                       0      0.00%     73.86% # Class of executed instruction
system.cpu2.op_class::SimdCvt                       0      0.00%     73.86% # Class of executed instruction
system.cpu2.op_class::SimdMisc                      0      0.00%     73.86% # Class of executed instruction
system.cpu2.op_class::SimdMult                      0      0.00%     73.86% # Class of executed instruction
system.cpu2.op_class::SimdMultAcc                   0      0.00%     73.86% # Class of executed instruction
system.cpu2.op_class::SimdShift                     0      0.00%     73.86% # Class of executed instruction
system.cpu2.op_class::SimdShiftAcc                  0      0.00%     73.86% # Class of executed instruction
system.cpu2.op_class::SimdSqrt                      0      0.00%     73.86% # Class of executed instruction
system.cpu2.op_class::SimdFloatAdd                  0      0.00%     73.86% # Class of executed instruction
system.cpu2.op_class::SimdFloatAlu                  0      0.00%     73.86% # Class of executed instruction
system.cpu2.op_class::SimdFloatCmp                  0      0.00%     73.86% # Class of executed instruction
system.cpu2.op_class::SimdFloatCvt                  0      0.00%     73.86% # Class of executed instruction
system.cpu2.op_class::SimdFloatDiv                  0      0.00%     73.86% # Class of executed instruction
system.cpu2.op_class::SimdFloatMisc                 0      0.00%     73.86% # Class of executed instruction
system.cpu2.op_class::SimdFloatMult                 0      0.00%     73.86% # Class of executed instruction
system.cpu2.op_class::SimdFloatMultAcc              0      0.00%     73.86% # Class of executed instruction
system.cpu2.op_class::SimdFloatSqrt                 0      0.00%     73.86% # Class of executed instruction
system.cpu2.op_class::MemRead                24964888     19.99%     93.84% # Class of executed instruction
system.cpu2.op_class::MemWrite                7693988      6.16%    100.00% # Class of executed instruction
system.cpu2.op_class::IprAccess                     0      0.00%    100.00% # Class of executed instruction
system.cpu2.op_class::InstPrefetch                  0      0.00%    100.00% # Class of executed instruction
system.cpu2.op_class::total                 124917363                       # Class of executed instruction
system.cpu2.kern.inst.arm                           0                       # number of arm instructions executed
system.cpu2.kern.inst.quiesce                      14                       # number of quiesce instructions executed
system.cpu3.apic_clk_domain.clock                8000                       # Clock period in ticks
system.cpu3.numCycles                       323637030                       # number of cpu cycles simulated
system.cpu3.numWorkItemsStarted                     0                       # number of work items this cpu started
system.cpu3.numWorkItemsCompleted                   0                       # number of work items this cpu completed
system.cpu3.committedInsts                  164214478                       # Number of instructions committed
system.cpu3.committedOps                    233926280                       # Number of ops (including micro ops) committed
system.cpu3.num_int_alu_accesses            140661510                       # Number of integer alu accesses
system.cpu3.num_fp_alu_accesses             148689927                       # Number of float alu accesses
system.cpu3.num_func_calls                     464362                       # number of times a function call or return occured
system.cpu3.num_conditional_control_insts      7692708                       # number of instructions that are conditional controls
system.cpu3.num_int_insts                   140661510                       # number of integer instructions
system.cpu3.num_fp_insts                    148689927                       # number of float instructions
system.cpu3.num_int_register_reads          301805951                       # number of times the integer registers were read
system.cpu3.num_int_register_writes          73635455                       # number of times the integer registers were written
system.cpu3.num_fp_register_reads           270938673                       # number of times the floating registers were read
system.cpu3.num_fp_register_writes          138562743                       # number of times the floating registers were written
system.cpu3.num_cc_register_reads            42036728                       # number of times the CC registers were read
system.cpu3.num_cc_register_writes           50790362                       # number of times the CC registers were written
system.cpu3.num_mem_refs                     61043313                       # number of memory refs
system.cpu3.num_load_insts                   47993235                       # Number of load instructions
system.cpu3.num_store_insts                  13050078                       # Number of store instructions
system.cpu3.num_idle_cycles              10830127.538072                       # Number of idle cycles
system.cpu3.num_busy_cycles              312806902.461928                       # Number of busy cycles
system.cpu3.not_idle_fraction                0.966536                       # Percentage of non-idle cycles
system.cpu3.idle_fraction                    0.033464                       # Percentage of idle cycles
system.cpu3.Branches                          8398847                       # Number of branches fetched
system.cpu3.op_class::No_OpClass               223997      0.10%      0.10% # Class of executed instruction
system.cpu3.op_class::IntAlu                 88292151     37.74%     37.84% # Class of executed instruction
system.cpu3.op_class::IntMult                   30541      0.01%     37.85% # Class of executed instruction
system.cpu3.op_class::IntDiv                    17363      0.01%     37.86% # Class of executed instruction
system.cpu3.op_class::FloatAdd               84320957     36.05%     73.91% # Class of executed instruction
system.cpu3.op_class::FloatCmp                      0      0.00%     73.91% # Class of executed instruction
system.cpu3.op_class::FloatCvt                      0      0.00%     73.91% # Class of executed instruction
system.cpu3.op_class::FloatMult                     0      0.00%     73.91% # Class of executed instruction
system.cpu3.op_class::FloatDiv                      0      0.00%     73.91% # Class of executed instruction
system.cpu3.op_class::FloatSqrt                     0      0.00%     73.91% # Class of executed instruction
system.cpu3.op_class::SimdAdd                       0      0.00%     73.91% # Class of executed instruction
system.cpu3.op_class::SimdAddAcc                    0      0.00%     73.91% # Class of executed instruction
system.cpu3.op_class::SimdAlu                       0      0.00%     73.91% # Class of executed instruction
system.cpu3.op_class::SimdCmp                       0      0.00%     73.91% # Class of executed instruction
system.cpu3.op_class::SimdCvt                       0      0.00%     73.91% # Class of executed instruction
system.cpu3.op_class::SimdMisc                      0      0.00%     73.91% # Class of executed instruction
system.cpu3.op_class::SimdMult                      0      0.00%     73.91% # Class of executed instruction
system.cpu3.op_class::SimdMultAcc                   0      0.00%     73.91% # Class of executed instruction
system.cpu3.op_class::SimdShift                     0      0.00%     73.91% # Class of executed instruction
system.cpu3.op_class::SimdShiftAcc                  0      0.00%     73.91% # Class of executed instruction
system.cpu3.op_class::SimdSqrt                      0      0.00%     73.91% # Class of executed instruction
system.cpu3.op_class::SimdFloatAdd                  0      0.00%     73.91% # Class of executed instruction
system.cpu3.op_class::SimdFloatAlu                  0      0.00%     73.91% # Class of executed instruction
system.cpu3.op_class::SimdFloatCmp                  0      0.00%     73.91% # Class of executed instruction
system.cpu3.op_class::SimdFloatCvt                  0      0.00%     73.91% # Class of executed instruction
system.cpu3.op_class::SimdFloatDiv                  0      0.00%     73.91% # Class of executed instruction
system.cpu3.op_class::SimdFloatMisc                 0      0.00%     73.91% # Class of executed instruction
system.cpu3.op_class::SimdFloatMult                 0      0.00%     73.91% # Class of executed instruction
system.cpu3.op_class::SimdFloatMultAcc              0      0.00%     73.91% # Class of executed instruction
system.cpu3.op_class::SimdFloatSqrt                 0      0.00%     73.91% # Class of executed instruction
system.cpu3.op_class::MemRead                47993235     20.52%     94.42% # Class of executed instruction
system.cpu3.op_class::MemWrite               13050078      5.58%    100.00% # Class of executed instruction
system.cpu3.op_class::IprAccess                     0      0.00%    100.00% # Class of executed instruction
system.cpu3.op_class::InstPrefetch                  0      0.00%    100.00% # Class of executed instruction
system.cpu3.op_class::total                 233928322                       # Class of executed instruction
system.cpu3.kern.inst.arm                           0                       # number of arm instructions executed
system.cpu3.kern.inst.quiesce                      26                       # number of quiesce instructions executed

---------- End Simulation Statistics   ----------
