
---------- Begin Simulation Statistics ----------
sim_seconds                                  4.766746                       # Number of seconds simulated
sim_ticks                                4766745600000                       # Number of ticks simulated
final_tick                               4766745600000                       # Number of ticks from beginning of simulation (restored from checkpoints and never reset)
sim_freq                                 1000000000000                       # Frequency of simulated ticks
host_inst_rate                                1544758                       # Simulator instruction rate (inst/s)
host_op_rate                                  1544758                       # Simulator op (including micro ops) rate (op/s)
host_tick_rate                            59622212797                       # Simulator tick rate (ticks/s)
host_mem_usage                                 461040                       # Number of bytes of host memory used
host_seconds                                    79.95                       # Real time elapsed on the host
sim_insts                                   123502080                       # Number of instructions simulated
sim_ops                                     123502080                       # Number of ops (including micro ops) simulated
system.voltage_domain.voltage                       1                       # Voltage in Volts
system.clk_domain.clock                          1000                       # Clock period in ticks
system.mem_ctrls.bytes_read::cpu0.inst       46063360                       # Number of bytes read from this memory
system.mem_ctrls.bytes_read::cpu0.data      161304640                       # Number of bytes read from this memory
system.mem_ctrls.bytes_read::tsunami.ide        13312                       # Number of bytes read from this memory
system.mem_ctrls.bytes_read::cpu1.inst       24370432                       # Number of bytes read from this memory
system.mem_ctrls.bytes_read::cpu1.data        9093824                       # Number of bytes read from this memory
system.mem_ctrls.bytes_read::cpu2.inst       36444864                       # Number of bytes read from this memory
system.mem_ctrls.bytes_read::cpu2.data       10672192                       # Number of bytes read from this memory
system.mem_ctrls.bytes_read::cpu3.inst        3919808                       # Number of bytes read from this memory
system.mem_ctrls.bytes_read::cpu3.data        2132480                       # Number of bytes read from this memory
system.mem_ctrls.bytes_read::total          294014912                       # Number of bytes read from this memory
system.mem_ctrls.bytes_inst_read::cpu0.inst     46063360                       # Number of instructions bytes read from this memory
system.mem_ctrls.bytes_inst_read::cpu1.inst     24370432                       # Number of instructions bytes read from this memory
system.mem_ctrls.bytes_inst_read::cpu2.inst     36444864                       # Number of instructions bytes read from this memory
system.mem_ctrls.bytes_inst_read::cpu3.inst      3919808                       # Number of instructions bytes read from this memory
system.mem_ctrls.bytes_inst_read::total     110798464                       # Number of instructions bytes read from this memory
system.mem_ctrls.bytes_written::writebacks     30488512                       # Number of bytes written to this memory
system.mem_ctrls.bytes_written::tsunami.ide      2832384                       # Number of bytes written to this memory
system.mem_ctrls.bytes_written::total        33320896                       # Number of bytes written to this memory
system.mem_ctrls.num_reads::cpu0.inst          719740                       # Number of read requests responded to by this memory
system.mem_ctrls.num_reads::cpu0.data         2520385                       # Number of read requests responded to by this memory
system.mem_ctrls.num_reads::tsunami.ide           208                       # Number of read requests responded to by this memory
system.mem_ctrls.num_reads::cpu1.inst          380788                       # Number of read requests responded to by this memory
system.mem_ctrls.num_reads::cpu1.data          142091                       # Number of read requests responded to by this memory
system.mem_ctrls.num_reads::cpu2.inst          569451                       # Number of read requests responded to by this memory
system.mem_ctrls.num_reads::cpu2.data          166753                       # Number of read requests responded to by this memory
system.mem_ctrls.num_reads::cpu3.inst           61247                       # Number of read requests responded to by this memory
system.mem_ctrls.num_reads::cpu3.data           33320                       # Number of read requests responded to by this memory
system.mem_ctrls.num_reads::total             4593983                       # Number of read requests responded to by this memory
system.mem_ctrls.num_writes::writebacks        476383                       # Number of write requests responded to by this memory
system.mem_ctrls.num_writes::tsunami.ide        44256                       # Number of write requests responded to by this memory
system.mem_ctrls.num_writes::total             520639                       # Number of write requests responded to by this memory
system.mem_ctrls.bw_read::cpu0.inst           9663482                       # Total read bandwidth from this memory (bytes/s)
system.mem_ctrls.bw_read::cpu0.data          33839574                       # Total read bandwidth from this memory (bytes/s)
system.mem_ctrls.bw_read::tsunami.ide            2793                       # Total read bandwidth from this memory (bytes/s)
system.mem_ctrls.bw_read::cpu1.inst           5112593                       # Total read bandwidth from this memory (bytes/s)
system.mem_ctrls.bw_read::cpu1.data           1907764                       # Total read bandwidth from this memory (bytes/s)
system.mem_ctrls.bw_read::cpu2.inst           7645649                       # Total read bandwidth from this memory (bytes/s)
system.mem_ctrls.bw_read::cpu2.data           2238884                       # Total read bandwidth from this memory (bytes/s)
system.mem_ctrls.bw_read::cpu3.inst            822324                       # Total read bandwidth from this memory (bytes/s)
system.mem_ctrls.bw_read::cpu3.data            447366                       # Total read bandwidth from this memory (bytes/s)
system.mem_ctrls.bw_read::total              61680429                       # Total read bandwidth from this memory (bytes/s)
system.mem_ctrls.bw_inst_read::cpu0.inst      9663482                       # Instruction read bandwidth from this memory (bytes/s)
system.mem_ctrls.bw_inst_read::cpu1.inst      5112593                       # Instruction read bandwidth from this memory (bytes/s)
system.mem_ctrls.bw_inst_read::cpu2.inst      7645649                       # Instruction read bandwidth from this memory (bytes/s)
system.mem_ctrls.bw_inst_read::cpu3.inst       822324                       # Instruction read bandwidth from this memory (bytes/s)
system.mem_ctrls.bw_inst_read::total         23244048                       # Instruction read bandwidth from this memory (bytes/s)
system.mem_ctrls.bw_write::writebacks         6396085                       # Write bandwidth from this memory (bytes/s)
system.mem_ctrls.bw_write::tsunami.ide         594197                       # Write bandwidth from this memory (bytes/s)
system.mem_ctrls.bw_write::total              6990282                       # Write bandwidth from this memory (bytes/s)
system.mem_ctrls.bw_total::writebacks         6396085                       # Total bandwidth to/from this memory (bytes/s)
system.mem_ctrls.bw_total::cpu0.inst          9663482                       # Total bandwidth to/from this memory (bytes/s)
system.mem_ctrls.bw_total::cpu0.data         33839574                       # Total bandwidth to/from this memory (bytes/s)
system.mem_ctrls.bw_total::tsunami.ide         596989                       # Total bandwidth to/from this memory (bytes/s)
system.mem_ctrls.bw_total::cpu1.inst          5112593                       # Total bandwidth to/from this memory (bytes/s)
system.mem_ctrls.bw_total::cpu1.data          1907764                       # Total bandwidth to/from this memory (bytes/s)
system.mem_ctrls.bw_total::cpu2.inst          7645649                       # Total bandwidth to/from this memory (bytes/s)
system.mem_ctrls.bw_total::cpu2.data          2238884                       # Total bandwidth to/from this memory (bytes/s)
system.mem_ctrls.bw_total::cpu3.inst           822324                       # Total bandwidth to/from this memory (bytes/s)
system.mem_ctrls.bw_total::cpu3.data           447366                       # Total bandwidth to/from this memory (bytes/s)
system.mem_ctrls.bw_total::total             68670711                       # Total bandwidth to/from this memory (bytes/s)
system.mem_ctrls.readReqs                     4593983                       # Number of read requests accepted
system.mem_ctrls.writeReqs                     520639                       # Number of write requests accepted
system.mem_ctrls.readBursts                   4593983                       # Number of DRAM read bursts, including those serviced by the write queue
system.mem_ctrls.writeBursts                   520639                       # Number of DRAM write bursts, including those merged in the write queue
system.mem_ctrls.bytesReadDRAM              291508032                       # Total number of bytes read from DRAM
system.mem_ctrls.bytesReadWrQ                 2506880                       # Total number of bytes read from write queue
system.mem_ctrls.bytesWritten                33053056                       # Total number of bytes written to DRAM
system.mem_ctrls.bytesReadSys               294014912                       # Total read bytes from the system interface side
system.mem_ctrls.bytesWrittenSys             33320896                       # Total written bytes from the system interface side
system.mem_ctrls.servicedByWrQ                  39170                       # Number of DRAM read bursts serviced by the write queue
system.mem_ctrls.mergedWrBursts                  4170                       # Number of DRAM write bursts merged with an existing one
system.mem_ctrls.neitherReadNorWriteReqs        44858                       # Number of requests that are neither read nor write
system.mem_ctrls.perBankRdBursts::0            276502                       # Per bank write bursts
system.mem_ctrls.perBankRdBursts::1            276522                       # Per bank write bursts
system.mem_ctrls.perBankRdBursts::2            271298                       # Per bank write bursts
system.mem_ctrls.perBankRdBursts::3            153451                       # Per bank write bursts
system.mem_ctrls.perBankRdBursts::4            206359                       # Per bank write bursts
system.mem_ctrls.perBankRdBursts::5            200007                       # Per bank write bursts
system.mem_ctrls.perBankRdBursts::6            345646                       # Per bank write bursts
system.mem_ctrls.perBankRdBursts::7            347460                       # Per bank write bursts
system.mem_ctrls.perBankRdBursts::8            384094                       # Per bank write bursts
system.mem_ctrls.perBankRdBursts::9            277943                       # Per bank write bursts
system.mem_ctrls.perBankRdBursts::10           379783                       # Per bank write bursts
system.mem_ctrls.perBankRdBursts::11           345097                       # Per bank write bursts
system.mem_ctrls.perBankRdBursts::12           244467                       # Per bank write bursts
system.mem_ctrls.perBankRdBursts::13           276962                       # Per bank write bursts
system.mem_ctrls.perBankRdBursts::14           323549                       # Per bank write bursts
system.mem_ctrls.perBankRdBursts::15           245673                       # Per bank write bursts
system.mem_ctrls.perBankWrBursts::0             30336                       # Per bank write bursts
system.mem_ctrls.perBankWrBursts::1             37625                       # Per bank write bursts
system.mem_ctrls.perBankWrBursts::2             28949                       # Per bank write bursts
system.mem_ctrls.perBankWrBursts::3             24545                       # Per bank write bursts
system.mem_ctrls.perBankWrBursts::4             25391                       # Per bank write bursts
system.mem_ctrls.perBankWrBursts::5             26898                       # Per bank write bursts
system.mem_ctrls.perBankWrBursts::6             63383                       # Per bank write bursts
system.mem_ctrls.perBankWrBursts::7             35407                       # Per bank write bursts
system.mem_ctrls.perBankWrBursts::8             26169                       # Per bank write bursts
system.mem_ctrls.perBankWrBursts::9             23007                       # Per bank write bursts
system.mem_ctrls.perBankWrBursts::10            29037                       # Per bank write bursts
system.mem_ctrls.perBankWrBursts::11            55023                       # Per bank write bursts
system.mem_ctrls.perBankWrBursts::12            27814                       # Per bank write bursts
system.mem_ctrls.perBankWrBursts::13            24381                       # Per bank write bursts
system.mem_ctrls.perBankWrBursts::14            28861                       # Per bank write bursts
system.mem_ctrls.perBankWrBursts::15            29628                       # Per bank write bursts
system.mem_ctrls.numRdRetry                         0                       # Number of times read queue was full causing retry
system.mem_ctrls.numWrRetry                        13                       # Number of times write queue was full causing retry
system.mem_ctrls.totGap                  4766745510000                       # Total gap between requests
system.mem_ctrls.readPktSize::0                     0                       # Read request sizes (log2)
system.mem_ctrls.readPktSize::1                     0                       # Read request sizes (log2)
system.mem_ctrls.readPktSize::2                     0                       # Read request sizes (log2)
system.mem_ctrls.readPktSize::3                     0                       # Read request sizes (log2)
system.mem_ctrls.readPktSize::4                     0                       # Read request sizes (log2)
system.mem_ctrls.readPktSize::5                     0                       # Read request sizes (log2)
system.mem_ctrls.readPktSize::6               4593983                       # Read request sizes (log2)
system.mem_ctrls.writePktSize::0                    0                       # Write request sizes (log2)
system.mem_ctrls.writePktSize::1                    0                       # Write request sizes (log2)
system.mem_ctrls.writePktSize::2                    0                       # Write request sizes (log2)
system.mem_ctrls.writePktSize::3                    0                       # Write request sizes (log2)
system.mem_ctrls.writePktSize::4                    0                       # Write request sizes (log2)
system.mem_ctrls.writePktSize::5                    0                       # Write request sizes (log2)
system.mem_ctrls.writePktSize::6               520639                       # Write request sizes (log2)
system.mem_ctrls.rdQLenPdf::0                 4474313                       # What read queue length does an incoming req see
system.mem_ctrls.rdQLenPdf::1                   69369                       # What read queue length does an incoming req see
system.mem_ctrls.rdQLenPdf::2                    8697                       # What read queue length does an incoming req see
system.mem_ctrls.rdQLenPdf::3                    2402                       # What read queue length does an incoming req see
system.mem_ctrls.rdQLenPdf::4                       8                       # What read queue length does an incoming req see
system.mem_ctrls.rdQLenPdf::5                       4                       # What read queue length does an incoming req see
system.mem_ctrls.rdQLenPdf::6                       4                       # What read queue length does an incoming req see
system.mem_ctrls.rdQLenPdf::7                       3                       # What read queue length does an incoming req see
system.mem_ctrls.rdQLenPdf::8                       3                       # What read queue length does an incoming req see
system.mem_ctrls.rdQLenPdf::9                       1                       # What read queue length does an incoming req see
system.mem_ctrls.rdQLenPdf::10                      1                       # What read queue length does an incoming req see
system.mem_ctrls.rdQLenPdf::11                      1                       # What read queue length does an incoming req see
system.mem_ctrls.rdQLenPdf::12                      1                       # What read queue length does an incoming req see
system.mem_ctrls.rdQLenPdf::13                      1                       # What read queue length does an incoming req see
system.mem_ctrls.rdQLenPdf::14                      1                       # What read queue length does an incoming req see
system.mem_ctrls.rdQLenPdf::15                      1                       # What read queue length does an incoming req see
system.mem_ctrls.rdQLenPdf::16                      1                       # What read queue length does an incoming req see
system.mem_ctrls.rdQLenPdf::17                      1                       # What read queue length does an incoming req see
system.mem_ctrls.rdQLenPdf::18                      1                       # What read queue length does an incoming req see
system.mem_ctrls.rdQLenPdf::19                      0                       # What read queue length does an incoming req see
system.mem_ctrls.rdQLenPdf::20                      0                       # What read queue length does an incoming req see
system.mem_ctrls.rdQLenPdf::21                      0                       # What read queue length does an incoming req see
system.mem_ctrls.rdQLenPdf::22                      0                       # What read queue length does an incoming req see
system.mem_ctrls.rdQLenPdf::23                      0                       # What read queue length does an incoming req see
system.mem_ctrls.rdQLenPdf::24                      0                       # What read queue length does an incoming req see
system.mem_ctrls.rdQLenPdf::25                      0                       # What read queue length does an incoming req see
system.mem_ctrls.rdQLenPdf::26                      0                       # What read queue length does an incoming req see
system.mem_ctrls.rdQLenPdf::27                      0                       # What read queue length does an incoming req see
system.mem_ctrls.rdQLenPdf::28                      0                       # What read queue length does an incoming req see
system.mem_ctrls.rdQLenPdf::29                      0                       # What read queue length does an incoming req see
system.mem_ctrls.rdQLenPdf::30                      0                       # What read queue length does an incoming req see
system.mem_ctrls.rdQLenPdf::31                      0                       # What read queue length does an incoming req see
system.mem_ctrls.wrQLenPdf::0                       1                       # What write queue length does an incoming req see
system.mem_ctrls.wrQLenPdf::1                       1                       # What write queue length does an incoming req see
system.mem_ctrls.wrQLenPdf::2                       1                       # What write queue length does an incoming req see
system.mem_ctrls.wrQLenPdf::3                       1                       # What write queue length does an incoming req see
system.mem_ctrls.wrQLenPdf::4                       1                       # What write queue length does an incoming req see
system.mem_ctrls.wrQLenPdf::5                       1                       # What write queue length does an incoming req see
system.mem_ctrls.wrQLenPdf::6                       1                       # What write queue length does an incoming req see
system.mem_ctrls.wrQLenPdf::7                       1                       # What write queue length does an incoming req see
system.mem_ctrls.wrQLenPdf::8                       1                       # What write queue length does an incoming req see
system.mem_ctrls.wrQLenPdf::9                       1                       # What write queue length does an incoming req see
system.mem_ctrls.wrQLenPdf::10                      1                       # What write queue length does an incoming req see
system.mem_ctrls.wrQLenPdf::11                      1                       # What write queue length does an incoming req see
system.mem_ctrls.wrQLenPdf::12                      1                       # What write queue length does an incoming req see
system.mem_ctrls.wrQLenPdf::13                      1                       # What write queue length does an incoming req see
system.mem_ctrls.wrQLenPdf::14                      1                       # What write queue length does an incoming req see
system.mem_ctrls.wrQLenPdf::15                  24367                       # What write queue length does an incoming req see
system.mem_ctrls.wrQLenPdf::16                  25352                       # What write queue length does an incoming req see
system.mem_ctrls.wrQLenPdf::17                  27513                       # What write queue length does an incoming req see
system.mem_ctrls.wrQLenPdf::18                  27687                       # What write queue length does an incoming req see
system.mem_ctrls.wrQLenPdf::19                  27811                       # What write queue length does an incoming req see
system.mem_ctrls.wrQLenPdf::20                  28264                       # What write queue length does an incoming req see
system.mem_ctrls.wrQLenPdf::21                  28393                       # What write queue length does an incoming req see
system.mem_ctrls.wrQLenPdf::22                  28997                       # What write queue length does an incoming req see
system.mem_ctrls.wrQLenPdf::23                  29390                       # What write queue length does an incoming req see
system.mem_ctrls.wrQLenPdf::24                  30147                       # What write queue length does an incoming req see
system.mem_ctrls.wrQLenPdf::25                  30004                       # What write queue length does an incoming req see
system.mem_ctrls.wrQLenPdf::26                  29952                       # What write queue length does an incoming req see
system.mem_ctrls.wrQLenPdf::27                  29640                       # What write queue length does an incoming req see
system.mem_ctrls.wrQLenPdf::28                  29743                       # What write queue length does an incoming req see
system.mem_ctrls.wrQLenPdf::29                  28967                       # What write queue length does an incoming req see
system.mem_ctrls.wrQLenPdf::30                  28708                       # What write queue length does an incoming req see
system.mem_ctrls.wrQLenPdf::31                  28359                       # What write queue length does an incoming req see
system.mem_ctrls.wrQLenPdf::32                  28268                       # What write queue length does an incoming req see
system.mem_ctrls.wrQLenPdf::33                    481                       # What write queue length does an incoming req see
system.mem_ctrls.wrQLenPdf::34                    328                       # What write queue length does an incoming req see
system.mem_ctrls.wrQLenPdf::35                    254                       # What write queue length does an incoming req see
system.mem_ctrls.wrQLenPdf::36                    246                       # What write queue length does an incoming req see
system.mem_ctrls.wrQLenPdf::37                    203                       # What write queue length does an incoming req see
system.mem_ctrls.wrQLenPdf::38                    192                       # What write queue length does an incoming req see
system.mem_ctrls.wrQLenPdf::39                    170                       # What write queue length does an incoming req see
system.mem_ctrls.wrQLenPdf::40                    191                       # What write queue length does an incoming req see
system.mem_ctrls.wrQLenPdf::41                    186                       # What write queue length does an incoming req see
system.mem_ctrls.wrQLenPdf::42                    196                       # What write queue length does an incoming req see
system.mem_ctrls.wrQLenPdf::43                    199                       # What write queue length does an incoming req see
system.mem_ctrls.wrQLenPdf::44                    223                       # What write queue length does an incoming req see
system.mem_ctrls.wrQLenPdf::45                    190                       # What write queue length does an incoming req see
system.mem_ctrls.wrQLenPdf::46                    195                       # What write queue length does an incoming req see
system.mem_ctrls.wrQLenPdf::47                    184                       # What write queue length does an incoming req see
system.mem_ctrls.wrQLenPdf::48                    156                       # What write queue length does an incoming req see
system.mem_ctrls.wrQLenPdf::49                    144                       # What write queue length does an incoming req see
system.mem_ctrls.wrQLenPdf::50                    137                       # What write queue length does an incoming req see
system.mem_ctrls.wrQLenPdf::51                    116                       # What write queue length does an incoming req see
system.mem_ctrls.wrQLenPdf::52                    112                       # What write queue length does an incoming req see
system.mem_ctrls.wrQLenPdf::53                    103                       # What write queue length does an incoming req see
system.mem_ctrls.wrQLenPdf::54                     77                       # What write queue length does an incoming req see
system.mem_ctrls.wrQLenPdf::55                     81                       # What write queue length does an incoming req see
system.mem_ctrls.wrQLenPdf::56                     94                       # What write queue length does an incoming req see
system.mem_ctrls.wrQLenPdf::57                     91                       # What write queue length does an incoming req see
system.mem_ctrls.wrQLenPdf::58                     80                       # What write queue length does an incoming req see
system.mem_ctrls.wrQLenPdf::59                     70                       # What write queue length does an incoming req see
system.mem_ctrls.wrQLenPdf::60                     68                       # What write queue length does an incoming req see
system.mem_ctrls.wrQLenPdf::61                     53                       # What write queue length does an incoming req see
system.mem_ctrls.wrQLenPdf::62                     38                       # What write queue length does an incoming req see
system.mem_ctrls.wrQLenPdf::63                     34                       # What write queue length does an incoming req see
system.mem_ctrls.bytesPerActivate::samples      1521620                       # Bytes accessed per row activation
system.mem_ctrls.bytesPerActivate::mean    213.298984                       # Bytes accessed per row activation
system.mem_ctrls.bytesPerActivate::gmean   139.202452                       # Bytes accessed per row activation
system.mem_ctrls.bytesPerActivate::stdev   239.949466                       # Bytes accessed per row activation
system.mem_ctrls.bytesPerActivate::0-127       677302     44.51%     44.51% # Bytes accessed per row activation
system.mem_ctrls.bytesPerActivate::128-255       406911     26.74%     71.25% # Bytes accessed per row activation
system.mem_ctrls.bytesPerActivate::256-383       198301     13.03%     84.29% # Bytes accessed per row activation
system.mem_ctrls.bytesPerActivate::384-511        71470      4.70%     88.98% # Bytes accessed per row activation
system.mem_ctrls.bytesPerActivate::512-639        48484      3.19%     92.17% # Bytes accessed per row activation
system.mem_ctrls.bytesPerActivate::640-767        27039      1.78%     93.95% # Bytes accessed per row activation
system.mem_ctrls.bytesPerActivate::768-895        12165      0.80%     94.75% # Bytes accessed per row activation
system.mem_ctrls.bytesPerActivate::896-1023         6878      0.45%     95.20% # Bytes accessed per row activation
system.mem_ctrls.bytesPerActivate::1024-1151        73070      4.80%    100.00% # Bytes accessed per row activation
system.mem_ctrls.bytesPerActivate::total      1521620                       # Bytes accessed per row activation
system.mem_ctrls.rdPerTurnAround::samples        27676                       # Reads before turning the bus around for writes
system.mem_ctrls.rdPerTurnAround::mean     164.576203                       # Reads before turning the bus around for writes
system.mem_ctrls.rdPerTurnAround::stdev   6205.331595                       # Reads before turning the bus around for writes
system.mem_ctrls.rdPerTurnAround::0-32767        27675    100.00%    100.00% # Reads before turning the bus around for writes
system.mem_ctrls.rdPerTurnAround::1.01581e+06-1.04858e+06            1      0.00%    100.00% # Reads before turning the bus around for writes
system.mem_ctrls.rdPerTurnAround::total         27676                       # Reads before turning the bus around for writes
system.mem_ctrls.wrPerTurnAround::samples        27676                       # Writes before turning the bus around for reads
system.mem_ctrls.wrPerTurnAround::mean      18.660717                       # Writes before turning the bus around for reads
system.mem_ctrls.wrPerTurnAround::gmean     18.281851                       # Writes before turning the bus around for reads
system.mem_ctrls.wrPerTurnAround::stdev      5.999139                       # Writes before turning the bus around for reads
system.mem_ctrls.wrPerTurnAround::16-19         26719     96.54%     96.54% # Writes before turning the bus around for reads
system.mem_ctrls.wrPerTurnAround::20-23           108      0.39%     96.93% # Writes before turning the bus around for reads
system.mem_ctrls.wrPerTurnAround::24-27           109      0.39%     97.33% # Writes before turning the bus around for reads
system.mem_ctrls.wrPerTurnAround::28-31           209      0.76%     98.08% # Writes before turning the bus around for reads
system.mem_ctrls.wrPerTurnAround::32-35           114      0.41%     98.49% # Writes before turning the bus around for reads
system.mem_ctrls.wrPerTurnAround::36-39            58      0.21%     98.70% # Writes before turning the bus around for reads
system.mem_ctrls.wrPerTurnAround::40-43            47      0.17%     98.87% # Writes before turning the bus around for reads
system.mem_ctrls.wrPerTurnAround::44-47            59      0.21%     99.09% # Writes before turning the bus around for reads
system.mem_ctrls.wrPerTurnAround::48-51            37      0.13%     99.22% # Writes before turning the bus around for reads
system.mem_ctrls.wrPerTurnAround::52-55            23      0.08%     99.30% # Writes before turning the bus around for reads
system.mem_ctrls.wrPerTurnAround::56-59            21      0.08%     99.38% # Writes before turning the bus around for reads
system.mem_ctrls.wrPerTurnAround::60-63            13      0.05%     99.43% # Writes before turning the bus around for reads
system.mem_ctrls.wrPerTurnAround::64-67            25      0.09%     99.52% # Writes before turning the bus around for reads
system.mem_ctrls.wrPerTurnAround::68-71            19      0.07%     99.58% # Writes before turning the bus around for reads
system.mem_ctrls.wrPerTurnAround::72-75            13      0.05%     99.63% # Writes before turning the bus around for reads
system.mem_ctrls.wrPerTurnAround::76-79            13      0.05%     99.68% # Writes before turning the bus around for reads
system.mem_ctrls.wrPerTurnAround::80-83            16      0.06%     99.74% # Writes before turning the bus around for reads
system.mem_ctrls.wrPerTurnAround::84-87            13      0.05%     99.78% # Writes before turning the bus around for reads
system.mem_ctrls.wrPerTurnAround::88-91            15      0.05%     99.84% # Writes before turning the bus around for reads
system.mem_ctrls.wrPerTurnAround::92-95            14      0.05%     99.89% # Writes before turning the bus around for reads
system.mem_ctrls.wrPerTurnAround::96-99            20      0.07%     99.96% # Writes before turning the bus around for reads
system.mem_ctrls.wrPerTurnAround::104-107            1      0.00%     99.96% # Writes before turning the bus around for reads
system.mem_ctrls.wrPerTurnAround::112-115            2      0.01%     99.97% # Writes before turning the bus around for reads
system.mem_ctrls.wrPerTurnAround::116-119            3      0.01%     99.98% # Writes before turning the bus around for reads
system.mem_ctrls.wrPerTurnAround::120-123            3      0.01%     99.99% # Writes before turning the bus around for reads
system.mem_ctrls.wrPerTurnAround::128-131            1      0.00%    100.00% # Writes before turning the bus around for reads
system.mem_ctrls.wrPerTurnAround::148-151            1      0.00%    100.00% # Writes before turning the bus around for reads
system.mem_ctrls.wrPerTurnAround::total         27676                       # Writes before turning the bus around for reads
system.mem_ctrls.totQLat                  44108093757                       # Total ticks spent queuing
system.mem_ctrls.totMemAccLat            129510837507                       # Total ticks spent from burst creation until serviced by the DRAM
system.mem_ctrls.totBusLat                22774065000                       # Total ticks spent in databus transfers
system.mem_ctrls.avgQLat                      9683.84                       # Average queueing delay per DRAM burst
system.mem_ctrls.avgBusLat                    5000.00                       # Average bus latency per DRAM burst
system.mem_ctrls.avgMemAccLat                28433.84                       # Average memory access latency per DRAM burst
system.mem_ctrls.avgRdBW                        61.15                       # Average DRAM read bandwidth in MiByte/s
system.mem_ctrls.avgWrBW                         6.93                       # Average achieved write bandwidth in MiByte/s
system.mem_ctrls.avgRdBWSys                     61.68                       # Average system read bandwidth in MiByte/s
system.mem_ctrls.avgWrBWSys                      6.99                       # Average system write bandwidth in MiByte/s
system.mem_ctrls.peakBW                      12800.00                       # Theoretical peak bandwidth in MiByte/s
system.mem_ctrls.busUtil                         0.53                       # Data bus utilization in percentage
system.mem_ctrls.busUtilRead                     0.48                       # Data bus utilization in percentage for reads
system.mem_ctrls.busUtilWrite                    0.05                       # Data bus utilization in percentage for writes
system.mem_ctrls.avgRdQLen                       1.28                       # Average read queue length when enqueuing
system.mem_ctrls.avgWrQLen                      24.40                       # Average write queue length when enqueuing
system.mem_ctrls.readRowHits                  3211530                       # Number of row buffer hits during reads
system.mem_ctrls.writeRowHits                  338113                       # Number of row buffer hits during writes
system.mem_ctrls.readRowHitRate                 70.51                       # Row buffer hit rate for reads
system.mem_ctrls.writeRowHitRate                65.47                       # Row buffer hit rate for writes
system.mem_ctrls.avgGap                     931983.93                       # Average gap between requests
system.mem_ctrls.pageHitRate                    69.99                       # Row buffer hit rate, read and write combined
system.mem_ctrls.memoryStateTime::IDLE   2514586897006                       # Time in different power states
system.mem_ctrls.memoryStateTime::REF    159172000000                       # Time in different power states
system.mem_ctrls.memoryStateTime::PRE_PDN            0                       # Time in different power states
system.mem_ctrls.memoryStateTime::ACT    2092983626744                       # Time in different power states
system.mem_ctrls.memoryStateTime::ACT_PDN            0                       # Time in different power states
system.mem_ctrls.actEnergy::0              4895969400                       # Energy for activate commands per rank (pJ)
system.mem_ctrls.actEnergy::1              6607462680                       # Energy for activate commands per rank (pJ)
system.mem_ctrls.preEnergy::0              2671411875                       # Energy for precharge commands per rank (pJ)
system.mem_ctrls.preEnergy::1              3605262375                       # Energy for precharge commands per rank (pJ)
system.mem_ctrls.readEnergy::0            16202472000                       # Energy for read commands per rank (pJ)
system.mem_ctrls.readEnergy::1            19325022600                       # Energy for read commands per rank (pJ)
system.mem_ctrls.writeEnergy::0            1765910160                       # Energy for write commands per rank (pJ)
system.mem_ctrls.writeEnergy::1            1580595120                       # Energy for write commands per rank (pJ)
system.mem_ctrls.refreshEnergy::0        311340432000                       # Energy for refresh commands per rank (pJ)
system.mem_ctrls.refreshEnergy::1        311340432000                       # Energy for refresh commands per rank (pJ)
system.mem_ctrls.actBackEnergy::0        1072693621665                       # Energy for active background per rank (pJ)
system.mem_ctrls.actBackEnergy::1        1170592157925                       # Energy for active background per rank (pJ)
system.mem_ctrls.preBackEnergy::0        1919086188750                       # Energy for precharge background per rank (pJ)
system.mem_ctrls.preBackEnergy::1        1833210279750                       # Energy for precharge background per rank (pJ)
system.mem_ctrls.totalEnergy::0          3328656005850                       # Total energy per rank (pJ)
system.mem_ctrls.totalEnergy::1          3346261212450                       # Total energy per rank (pJ)
system.mem_ctrls.averagePower::0           698.308331                       # Core power per rank (mW)
system.mem_ctrls.averagePower::1           702.001672                       # Core power per rank (mW)
system.membus.trans_dist::ReadReq             4473120                       # Transaction distribution
system.membus.trans_dist::ReadResp            4473120                       # Transaction distribution
system.membus.trans_dist::WriteReq              32921                       # Transaction distribution
system.membus.trans_dist::WriteResp             32921                       # Transaction distribution
system.membus.trans_dist::Writeback            476383                       # Transaction distribution
system.membus.trans_dist::WriteInvalidateReq        44256                       # Transaction distribution
system.membus.trans_dist::WriteInvalidateResp        44256                       # Transaction distribution
system.membus.trans_dist::UpgradeReq           101438                       # Transaction distribution
system.membus.trans_dist::SCUpgradeReq          61679                       # Transaction distribution
system.membus.trans_dist::UpgradeResp          163117                       # Transaction distribution
system.membus.trans_dist::SCUpgradeFailReq           90                       # Transaction distribution
system.membus.trans_dist::UpgradeFailResp           90                       # Transaction distribution
system.membus.trans_dist::ReadExReq            377355                       # Transaction distribution
system.membus.trans_dist::ReadExResp           377355                       # Transaction distribution
system.membus.pkt_count_system.iocache.mem_side::system.mem_ctrls.port        88929                       # Packet count per connected master and slave (bytes)
system.membus.pkt_count_system.iocache.mem_side::total        88929                       # Packet count per connected master and slave (bytes)
system.membus.pkt_count_system.cpu0.icache.mem_side::system.mem_ctrls.port      1439484                       # Packet count per connected master and slave (bytes)
system.membus.pkt_count_system.cpu0.icache.mem_side::total      1439484                       # Packet count per connected master and slave (bytes)
system.membus.pkt_count_system.cpu0.dcache.mem_side::system.bridge.slave        34666                       # Packet count per connected master and slave (bytes)
system.membus.pkt_count_system.cpu0.dcache.mem_side::system.mem_ctrls.port      5421902                       # Packet count per connected master and slave (bytes)
system.membus.pkt_count_system.cpu0.dcache.mem_side::total      5456568                       # Packet count per connected master and slave (bytes)
system.membus.pkt_count_system.cpu1.icache.mem_side::system.mem_ctrls.port       761593                       # Packet count per connected master and slave (bytes)
system.membus.pkt_count_system.cpu1.icache.mem_side::total       761593                       # Packet count per connected master and slave (bytes)
system.membus.pkt_count_system.cpu1.dcache.mem_side::system.bridge.slave        15426                       # Packet count per connected master and slave (bytes)
system.membus.pkt_count_system.cpu1.dcache.mem_side::system.mem_ctrls.port       494998                       # Packet count per connected master and slave (bytes)
system.membus.pkt_count_system.cpu1.dcache.mem_side::total       510424                       # Packet count per connected master and slave (bytes)
system.membus.pkt_count_system.cpu2.icache.mem_side::system.mem_ctrls.port      1138935                       # Packet count per connected master and slave (bytes)
system.membus.pkt_count_system.cpu2.icache.mem_side::total      1138935                       # Packet count per connected master and slave (bytes)
system.membus.pkt_count_system.cpu2.dcache.mem_side::system.bridge.slave        20698                       # Packet count per connected master and slave (bytes)
system.membus.pkt_count_system.cpu2.dcache.mem_side::system.mem_ctrls.port       620364                       # Packet count per connected master and slave (bytes)
system.membus.pkt_count_system.cpu2.dcache.mem_side::total       641062                       # Packet count per connected master and slave (bytes)
system.membus.pkt_count_system.cpu3.icache.mem_side::system.mem_ctrls.port       122499                       # Packet count per connected master and slave (bytes)
system.membus.pkt_count_system.cpu3.icache.mem_side::total       122499                       # Packet count per connected master and slave (bytes)
system.membus.pkt_count_system.cpu3.dcache.mem_side::system.bridge.slave         9812                       # Packet count per connected master and slave (bytes)
system.membus.pkt_count_system.cpu3.dcache.mem_side::system.mem_ctrls.port       121334                       # Packet count per connected master and slave (bytes)
system.membus.pkt_count_system.cpu3.dcache.mem_side::total       131146                       # Packet count per connected master and slave (bytes)
system.membus.pkt_count::total               10290640                       # Packet count per connected master and slave (bytes)
system.membus.pkt_size_system.iocache.mem_side::system.mem_ctrls.port      2845696                       # Cumulative packet size per connected master and slave (bytes)
system.membus.pkt_size_system.iocache.mem_side::total      2845696                       # Cumulative packet size per connected master and slave (bytes)
system.membus.pkt_size_system.cpu0.icache.mem_side::system.mem_ctrls.port     46063360                       # Cumulative packet size per connected master and slave (bytes)
system.membus.pkt_size_system.cpu0.icache.mem_side::total     46063360                       # Cumulative packet size per connected master and slave (bytes)
system.membus.pkt_size_system.cpu0.dcache.mem_side::system.bridge.slave        71058                       # Cumulative packet size per connected master and slave (bytes)
system.membus.pkt_size_system.cpu0.dcache.mem_side::system.mem_ctrls.port    179690432                       # Cumulative packet size per connected master and slave (bytes)
system.membus.pkt_size_system.cpu0.dcache.mem_side::total    179761490                       # Cumulative packet size per connected master and slave (bytes)
system.membus.pkt_size_system.cpu1.icache.mem_side::system.mem_ctrls.port     24370432                       # Cumulative packet size per connected master and slave (bytes)
system.membus.pkt_size_system.cpu1.icache.mem_side::total     24370432                       # Cumulative packet size per connected master and slave (bytes)
system.membus.pkt_size_system.cpu1.dcache.mem_side::system.bridge.slave        61683                       # Cumulative packet size per connected master and slave (bytes)
system.membus.pkt_size_system.cpu1.dcache.mem_side::system.mem_ctrls.port     12751680                       # Cumulative packet size per connected master and slave (bytes)
system.membus.pkt_size_system.cpu1.dcache.mem_side::total     12813363                       # Cumulative packet size per connected master and slave (bytes)
system.membus.pkt_size_system.cpu2.icache.mem_side::system.mem_ctrls.port     36444864                       # Cumulative packet size per connected master and slave (bytes)
system.membus.pkt_size_system.cpu2.icache.mem_side::total     36444864                       # Cumulative packet size per connected master and slave (bytes)
system.membus.pkt_size_system.cpu2.dcache.mem_side::system.bridge.slave        56884                       # Cumulative packet size per connected master and slave (bytes)
system.membus.pkt_size_system.cpu2.dcache.mem_side::system.mem_ctrls.port     17918208                       # Cumulative packet size per connected master and slave (bytes)
system.membus.pkt_size_system.cpu2.dcache.mem_side::total     17975092                       # Cumulative packet size per connected master and slave (bytes)
system.membus.pkt_size_system.cpu3.icache.mem_side::system.mem_ctrls.port      3919808                       # Cumulative packet size per connected master and slave (bytes)
system.membus.pkt_size_system.cpu3.icache.mem_side::total      3919808                       # Cumulative packet size per connected master and slave (bytes)
system.membus.pkt_size_system.cpu3.dcache.mem_side::system.bridge.slave        38676                       # Cumulative packet size per connected master and slave (bytes)
system.membus.pkt_size_system.cpu3.dcache.mem_side::system.mem_ctrls.port      3331328                       # Cumulative packet size per connected master and slave (bytes)
system.membus.pkt_size_system.cpu3.dcache.mem_side::total      3370004                       # Cumulative packet size per connected master and slave (bytes)
system.membus.pkt_size::total               327564109                       # Cumulative packet size per connected master and slave (bytes)
system.membus.snoops                           367461                       # Total snoops (count)
system.membus.snoop_fanout::samples           5526954                       # Request fanout histogram
system.membus.snoop_fanout::mean                    8                       # Request fanout histogram
system.membus.snoop_fanout::stdev                   0                       # Request fanout histogram
system.membus.snoop_fanout::underflows              0      0.00%      0.00% # Request fanout histogram
system.membus.snoop_fanout::0                       0      0.00%      0.00% # Request fanout histogram
system.membus.snoop_fanout::1                       0      0.00%      0.00% # Request fanout histogram
system.membus.snoop_fanout::2                       0      0.00%      0.00% # Request fanout histogram
system.membus.snoop_fanout::3                       0      0.00%      0.00% # Request fanout histogram
system.membus.snoop_fanout::4                       0      0.00%      0.00% # Request fanout histogram
system.membus.snoop_fanout::5                       0      0.00%      0.00% # Request fanout histogram
system.membus.snoop_fanout::6                       0      0.00%      0.00% # Request fanout histogram
system.membus.snoop_fanout::7                       0      0.00%      0.00% # Request fanout histogram
system.membus.snoop_fanout::8                 5526954    100.00%    100.00% # Request fanout histogram
system.membus.snoop_fanout::9                       0      0.00%    100.00% # Request fanout histogram
system.membus.snoop_fanout::overflows               0      0.00%    100.00% # Request fanout histogram
system.membus.snoop_fanout::min_value               8                       # Request fanout histogram
system.membus.snoop_fanout::max_value               8                       # Request fanout histogram
system.membus.snoop_fanout::total             5526954                       # Request fanout histogram
system.membus.reqLayer0.occupancy            73224997                       # Layer occupancy (ticks)
system.membus.reqLayer0.utilization               0.0                       # Layer utilization (%)
system.membus.reqLayer1.occupancy          9693005065                       # Layer occupancy (ticks)
system.membus.reqLayer1.utilization               0.2                       # Layer utilization (%)
system.membus.respLayer1.occupancy           46176238                       # Layer occupancy (ticks)
system.membus.respLayer1.utilization              0.0                       # Layer utilization (%)
system.membus.respLayer2.occupancy         6740088749                       # Layer occupancy (ticks)
system.membus.respLayer2.utilization              0.1                       # Layer utilization (%)
system.membus.respLayer3.occupancy        23883258090                       # Layer occupancy (ticks)
system.membus.respLayer3.utilization              0.5                       # Layer utilization (%)
system.membus.respLayer4.occupancy         3565940745                       # Layer occupancy (ticks)
system.membus.respLayer4.utilization              0.1                       # Layer utilization (%)
system.membus.respLayer5.occupancy         2177510814                       # Layer occupancy (ticks)
system.membus.respLayer5.utilization              0.0                       # Layer utilization (%)
system.membus.respLayer6.occupancy         5327798248                       # Layer occupancy (ticks)
system.membus.respLayer6.utilization              0.1                       # Layer utilization (%)
system.membus.respLayer7.occupancy         2606688150                       # Layer occupancy (ticks)
system.membus.respLayer7.utilization              0.1                       # Layer utilization (%)
system.membus.respLayer8.occupancy          574042999                       # Layer occupancy (ticks)
system.membus.respLayer8.utilization              0.0                       # Layer utilization (%)
system.membus.respLayer9.occupancy          490035859                       # Layer occupancy (ticks)
system.membus.respLayer9.utilization              0.0                       # Layer utilization (%)
system.iocache.tags.replacements                44448                       # number of replacements
system.iocache.tags.tagsinuse                1.488890                       # Cycle average of tags in use
system.iocache.tags.total_refs                      0                       # Total number of references to valid blocks.
system.iocache.tags.sampled_refs                44448                       # Sample count of references to valid blocks.
system.iocache.tags.avg_refs                        0                       # Average number of references to valid blocks.
system.iocache.tags.warmup_cycle         4321330326000                       # Cycle when the warmup percentage was hit.
system.iocache.tags.occ_blocks::tsunami.ide     1.488890                       # Average occupied blocks per requestor
system.iocache.tags.occ_percent::tsunami.ide     0.093056                       # Average percentage of cache occupancy
system.iocache.tags.occ_percent::total       0.093056                       # Average percentage of cache occupancy
system.iocache.tags.occ_task_id_blocks::1023           16                       # Occupied blocks per task id
system.iocache.tags.age_task_id_blocks_1023::4           16                       # Occupied blocks per task id
system.iocache.tags.occ_task_id_percent::1023            1                       # Percentage of cache occupancy per task id
system.iocache.tags.tag_accesses               400193                       # Number of tag accesses
system.iocache.tags.data_accesses              400193                       # Number of data accesses
system.iocache.WriteInvalidateReq_hits::tsunami.ide        44256                       # number of WriteInvalidateReq hits
system.iocache.WriteInvalidateReq_hits::total        44256                       # number of WriteInvalidateReq hits
system.iocache.ReadReq_misses::tsunami.ide          209                       # number of ReadReq misses
system.iocache.ReadReq_misses::total              209                       # number of ReadReq misses
system.iocache.WriteInvalidateReq_misses::tsunami.ide            1                       # number of WriteInvalidateReq misses
system.iocache.WriteInvalidateReq_misses::total            1                       # number of WriteInvalidateReq misses
system.iocache.demand_misses::tsunami.ide          209                       # number of demand (read+write) misses
system.iocache.demand_misses::total               209                       # number of demand (read+write) misses
system.iocache.overall_misses::tsunami.ide          209                       # number of overall misses
system.iocache.overall_misses::total              209                       # number of overall misses
system.iocache.ReadReq_miss_latency::tsunami.ide     34929604                       # number of ReadReq miss cycles
system.iocache.ReadReq_miss_latency::total     34929604                       # number of ReadReq miss cycles
system.iocache.demand_miss_latency::tsunami.ide     34929604                       # number of demand (read+write) miss cycles
system.iocache.demand_miss_latency::total     34929604                       # number of demand (read+write) miss cycles
system.iocache.overall_miss_latency::tsunami.ide     34929604                       # number of overall miss cycles
system.iocache.overall_miss_latency::total     34929604                       # number of overall miss cycles
system.iocache.ReadReq_accesses::tsunami.ide          209                       # number of ReadReq accesses(hits+misses)
system.iocache.ReadReq_accesses::total            209                       # number of ReadReq accesses(hits+misses)
system.iocache.WriteInvalidateReq_accesses::tsunami.ide        44257                       # number of WriteInvalidateReq accesses(hits+misses)
system.iocache.WriteInvalidateReq_accesses::total        44257                       # number of WriteInvalidateReq accesses(hits+misses)
system.iocache.demand_accesses::tsunami.ide          209                       # number of demand (read+write) accesses
system.iocache.demand_accesses::total             209                       # number of demand (read+write) accesses
system.iocache.overall_accesses::tsunami.ide          209                       # number of overall (read+write) accesses
system.iocache.overall_accesses::total            209                       # number of overall (read+write) accesses
system.iocache.ReadReq_miss_rate::tsunami.ide            1                       # miss rate for ReadReq accesses
system.iocache.ReadReq_miss_rate::total             1                       # miss rate for ReadReq accesses
system.iocache.WriteInvalidateReq_miss_rate::tsunami.ide     0.000023                       # miss rate for WriteInvalidateReq accesses
system.iocache.WriteInvalidateReq_miss_rate::total     0.000023                       # miss rate for WriteInvalidateReq accesses
system.iocache.demand_miss_rate::tsunami.ide            1                       # miss rate for demand accesses
system.iocache.demand_miss_rate::total              1                       # miss rate for demand accesses
system.iocache.overall_miss_rate::tsunami.ide            1                       # miss rate for overall accesses
system.iocache.overall_miss_rate::total             1                       # miss rate for overall accesses
system.iocache.ReadReq_avg_miss_latency::tsunami.ide 167127.291866                       # average ReadReq miss latency
system.iocache.ReadReq_avg_miss_latency::total 167127.291866                       # average ReadReq miss latency
system.iocache.demand_avg_miss_latency::tsunami.ide 167127.291866                       # average overall miss latency
system.iocache.demand_avg_miss_latency::total 167127.291866                       # average overall miss latency
system.iocache.overall_avg_miss_latency::tsunami.ide 167127.291866                       # average overall miss latency
system.iocache.overall_avg_miss_latency::total 167127.291866                       # average overall miss latency
system.iocache.blocked_cycles::no_mshrs           428                       # number of cycles access was blocked
system.iocache.blocked_cycles::no_targets            0                       # number of cycles access was blocked
system.iocache.blocked::no_mshrs                   45                       # number of cycles access was blocked
system.iocache.blocked::no_targets                  0                       # number of cycles access was blocked
system.iocache.avg_blocked_cycles::no_mshrs     9.511111                       # average number of cycles each access was blocked
system.iocache.avg_blocked_cycles::no_targets          nan                       # average number of cycles each access was blocked
system.iocache.fast_writes                      44256                       # number of fast writes performed
system.iocache.cache_copies                         0                       # number of cache copies performed
system.iocache.ReadReq_mshr_misses::tsunami.ide          209                       # number of ReadReq MSHR misses
system.iocache.ReadReq_mshr_misses::total          209                       # number of ReadReq MSHR misses
system.iocache.WriteInvalidateReq_mshr_misses::tsunami.ide        44256                       # number of WriteInvalidateReq MSHR misses
system.iocache.WriteInvalidateReq_mshr_misses::total        44256                       # number of WriteInvalidateReq MSHR misses
system.iocache.demand_mshr_misses::tsunami.ide          209                       # number of demand (read+write) MSHR misses
system.iocache.demand_mshr_misses::total          209                       # number of demand (read+write) MSHR misses
system.iocache.overall_mshr_misses::tsunami.ide          209                       # number of overall MSHR misses
system.iocache.overall_mshr_misses::total          209                       # number of overall MSHR misses
system.iocache.ReadReq_mshr_miss_latency::tsunami.ide     24017104                       # number of ReadReq MSHR miss cycles
system.iocache.ReadReq_mshr_miss_latency::total     24017104                       # number of ReadReq MSHR miss cycles
system.iocache.WriteInvalidateReq_mshr_miss_latency::tsunami.ide   2729543729                       # number of WriteInvalidateReq MSHR miss cycles
system.iocache.WriteInvalidateReq_mshr_miss_latency::total   2729543729                       # number of WriteInvalidateReq MSHR miss cycles
system.iocache.demand_mshr_miss_latency::tsunami.ide     24017104                       # number of demand (read+write) MSHR miss cycles
system.iocache.demand_mshr_miss_latency::total     24017104                       # number of demand (read+write) MSHR miss cycles
system.iocache.overall_mshr_miss_latency::tsunami.ide     24017104                       # number of overall MSHR miss cycles
system.iocache.overall_mshr_miss_latency::total     24017104                       # number of overall MSHR miss cycles
system.iocache.ReadReq_mshr_miss_rate::tsunami.ide            1                       # mshr miss rate for ReadReq accesses
system.iocache.ReadReq_mshr_miss_rate::total            1                       # mshr miss rate for ReadReq accesses
system.iocache.WriteInvalidateReq_mshr_miss_rate::tsunami.ide     0.999977                       # mshr miss rate for WriteInvalidateReq accesses
system.iocache.WriteInvalidateReq_mshr_miss_rate::total     0.999977                       # mshr miss rate for WriteInvalidateReq accesses
system.iocache.demand_mshr_miss_rate::tsunami.ide            1                       # mshr miss rate for demand accesses
system.iocache.demand_mshr_miss_rate::total            1                       # mshr miss rate for demand accesses
system.iocache.overall_mshr_miss_rate::tsunami.ide            1                       # mshr miss rate for overall accesses
system.iocache.overall_mshr_miss_rate::total            1                       # mshr miss rate for overall accesses
system.iocache.ReadReq_avg_mshr_miss_latency::tsunami.ide 114914.373206                       # average ReadReq mshr miss latency
system.iocache.ReadReq_avg_mshr_miss_latency::total 114914.373206                       # average ReadReq mshr miss latency
system.iocache.WriteInvalidateReq_avg_mshr_miss_latency::tsunami.ide 61676.241165                       # average WriteInvalidateReq mshr miss latency
system.iocache.WriteInvalidateReq_avg_mshr_miss_latency::total 61676.241165                       # average WriteInvalidateReq mshr miss latency
system.iocache.demand_avg_mshr_miss_latency::tsunami.ide 114914.373206                       # average overall mshr miss latency
system.iocache.demand_avg_mshr_miss_latency::total 114914.373206                       # average overall mshr miss latency
system.iocache.overall_avg_mshr_miss_latency::tsunami.ide 114914.373206                       # average overall mshr miss latency
system.iocache.overall_avg_mshr_miss_latency::total 114914.373206                       # average overall mshr miss latency
system.iocache.no_allocate_misses                   0                       # Number of misses that were no-allocate
system.disk0.dma_read_full_pages                    0                       # Number of full page size DMA reads (not PRD).
system.disk0.dma_read_bytes                      4096                       # Number of bytes transfered via DMA reads (not PRD).
system.disk0.dma_read_txs                           1                       # Number of DMA read transactions (not PRD).
system.disk0.dma_write_full_pages                 326                       # Number of full page size DMA writes.
system.disk0.dma_write_bytes                  2824192                       # Number of bytes transfered via DMA writes.
system.disk0.dma_write_txs                        365                       # Number of DMA write transactions.
system.disk2.dma_read_full_pages                    0                       # Number of full page size DMA reads (not PRD).
system.disk2.dma_read_bytes                         0                       # Number of bytes transfered via DMA reads (not PRD).
system.disk2.dma_read_txs                           0                       # Number of DMA read transactions (not PRD).
system.disk2.dma_write_full_pages                   1                       # Number of full page size DMA writes.
system.disk2.dma_write_bytes                     8192                       # Number of bytes transfered via DMA writes.
system.disk2.dma_write_txs                          1                       # Number of DMA write transactions.
system.cpu_voltage_domain.voltage                   1                       # Voltage in Volts
system.cpu_clk_domain.clock                     10000                       # Clock period in ticks
system.cpu0.dtb.fetch_hits                          0                       # ITB hits
system.cpu0.dtb.fetch_misses                        0                       # ITB misses
system.cpu0.dtb.fetch_acv                           0                       # ITB acv
system.cpu0.dtb.fetch_accesses                      0                       # ITB accesses
system.cpu0.dtb.read_hits                    12105266                       # DTB read hits
system.cpu0.dtb.read_misses                      3232                       # DTB read misses
system.cpu0.dtb.read_acv                           14                       # DTB read access violations
system.cpu0.dtb.read_accesses                  212562                       # DTB read accesses
system.cpu0.dtb.write_hits                    5256169                       # DTB write hits
system.cpu0.dtb.write_misses                      296                       # DTB write misses
system.cpu0.dtb.write_acv                          37                       # DTB write access violations
system.cpu0.dtb.write_accesses                  92693                       # DTB write accesses
system.cpu0.dtb.data_hits                    17361435                       # DTB hits
system.cpu0.dtb.data_misses                      3528                       # DTB misses
system.cpu0.dtb.data_acv                           51                       # DTB access violations
system.cpu0.dtb.data_accesses                  305255                       # DTB accesses
system.cpu0.itb.fetch_hits                    2804102                       # ITB hits
system.cpu0.itb.fetch_misses                     1367                       # ITB misses
system.cpu0.itb.fetch_acv                           1                       # ITB acv
system.cpu0.itb.fetch_accesses                2805469                       # ITB accesses
system.cpu0.itb.read_hits                           0                       # DTB read hits
system.cpu0.itb.read_misses                         0                       # DTB read misses
system.cpu0.itb.read_acv                            0                       # DTB read access violations
system.cpu0.itb.read_accesses                       0                       # DTB read accesses
system.cpu0.itb.write_hits                          0                       # DTB write hits
system.cpu0.itb.write_misses                        0                       # DTB write misses
system.cpu0.itb.write_acv                           0                       # DTB write access violations
system.cpu0.itb.write_accesses                      0                       # DTB write accesses
system.cpu0.itb.data_hits                           0                       # DTB hits
system.cpu0.itb.data_misses                         0                       # DTB misses
system.cpu0.itb.data_acv                            0                       # DTB access violations
system.cpu0.itb.data_accesses                       0                       # DTB accesses
system.cpu0.numCycles                       476665072                       # number of cpu cycles simulated
system.cpu0.numWorkItemsStarted                     0                       # number of work items this cpu started
system.cpu0.numWorkItemsCompleted                   0                       # number of work items this cpu completed
system.cpu0.committedInsts                   69586488                       # Number of instructions committed
system.cpu0.committedOps                     69586488                       # Number of ops (including micro ops) committed
system.cpu0.num_int_alu_accesses             67230340                       # Number of integer alu accesses
system.cpu0.num_fp_alu_accesses                195742                       # Number of float alu accesses
system.cpu0.num_func_calls                    2235868                       # number of times a function call or return occured
system.cpu0.num_conditional_control_insts      9087221                       # number of instructions that are conditional controls
system.cpu0.num_int_insts                    67230340                       # number of integer instructions
system.cpu0.num_fp_insts                       195742                       # number of float instructions
system.cpu0.num_int_register_reads           91964057                       # number of times the integer registers were read
system.cpu0.num_int_register_writes          51958051                       # number of times the integer registers were written
system.cpu0.num_fp_register_reads               77378                       # number of times the floating registers were read
system.cpu0.num_fp_register_writes              78755                       # number of times the floating registers were written
system.cpu0.num_mem_refs                     17389251                       # number of memory refs
system.cpu0.num_load_insts                   12120334                       # Number of load instructions
system.cpu0.num_store_insts                   5268917                       # Number of store instructions
system.cpu0.num_idle_cycles              276142064.902818                       # Number of idle cycles
system.cpu0.num_busy_cycles              200523007.097182                       # Number of busy cycles
system.cpu0.not_idle_fraction                0.420679                       # Percentage of non-idle cycles
system.cpu0.idle_fraction                    0.579321                       # Percentage of idle cycles
system.cpu0.Branches                         11797561                       # Number of branches fetched
system.cpu0.op_class::No_OpClass              1405271      2.02%      2.02% # Class of executed instruction
system.cpu0.op_class::IntAlu                 49589762     71.26%     73.28% # Class of executed instruction
system.cpu0.op_class::IntMult                  133374      0.19%     73.47% # Class of executed instruction
system.cpu0.op_class::IntDiv                        0      0.00%     73.47% # Class of executed instruction
system.cpu0.op_class::FloatAdd                  61510      0.09%     73.56% # Class of executed instruction
system.cpu0.op_class::FloatCmp                      0      0.00%     73.56% # Class of executed instruction
system.cpu0.op_class::FloatCvt                      0      0.00%     73.56% # Class of executed instruction
system.cpu0.op_class::FloatMult                     0      0.00%     73.56% # Class of executed instruction
system.cpu0.op_class::FloatDiv                   1841      0.00%     73.56% # Class of executed instruction
system.cpu0.op_class::FloatSqrt                     0      0.00%     73.56% # Class of executed instruction
system.cpu0.op_class::SimdAdd                       0      0.00%     73.56% # Class of executed instruction
system.cpu0.op_class::SimdAddAcc                    0      0.00%     73.56% # Class of executed instruction
system.cpu0.op_class::SimdAlu                       0      0.00%     73.56% # Class of executed instruction
system.cpu0.op_class::SimdCmp                       0      0.00%     73.56% # Class of executed instruction
system.cpu0.op_class::SimdCvt                       0      0.00%     73.56% # Class of executed instruction
system.cpu0.op_class::SimdMisc                      0      0.00%     73.56% # Class of executed instruction
system.cpu0.op_class::SimdMult                      0      0.00%     73.56% # Class of executed instruction
system.cpu0.op_class::SimdMultAcc                   0      0.00%     73.56% # Class of executed instruction
system.cpu0.op_class::SimdShift                     0      0.00%     73.56% # Class of executed instruction
system.cpu0.op_class::SimdShiftAcc                  0      0.00%     73.56% # Class of executed instruction
system.cpu0.op_class::SimdSqrt                      0      0.00%     73.56% # Class of executed instruction
system.cpu0.op_class::SimdFloatAdd                  0      0.00%     73.56% # Class of executed instruction
system.cpu0.op_class::SimdFloatAlu                  0      0.00%     73.56% # Class of executed instruction
system.cpu0.op_class::SimdFloatCmp                  0      0.00%     73.56% # Class of executed instruction
system.cpu0.op_class::SimdFloatCvt                  0      0.00%     73.56% # Class of executed instruction
system.cpu0.op_class::SimdFloatDiv                  0      0.00%     73.56% # Class of executed instruction
system.cpu0.op_class::SimdFloatMisc                 0      0.00%     73.56% # Class of executed instruction
system.cpu0.op_class::SimdFloatMult                 0      0.00%     73.56% # Class of executed instruction
system.cpu0.op_class::SimdFloatMultAcc              0      0.00%     73.56% # Class of executed instruction
system.cpu0.op_class::SimdFloatSqrt                 0      0.00%     73.56% # Class of executed instruction
system.cpu0.op_class::MemRead                12385542     17.80%     91.36% # Class of executed instruction
system.cpu0.op_class::MemWrite                5289544      7.60%     98.96% # Class of executed instruction
system.cpu0.op_class::IprAccess                723223      1.04%    100.00% # Class of executed instruction
system.cpu0.op_class::InstPrefetch                  0      0.00%    100.00% # Class of executed instruction
system.cpu0.op_class::total                  69590067                       # Class of executed instruction
system.cpu0.kern.inst.arm                           0                       # number of arm instructions executed
system.cpu0.kern.inst.quiesce                    7738                       # number of quiesce instructions executed
system.cpu0.kern.inst.hwrei                    169255                       # number of hwrei instructions executed
system.cpu0.kern.ipl_count::0                   51972     34.21%     34.21% # number of times we switched to this ipl
system.cpu0.kern.ipl_count::21                     16      0.01%     34.22% # number of times we switched to this ipl
system.cpu0.kern.ipl_count::22                   4529      2.98%     37.20% # number of times we switched to this ipl
system.cpu0.kern.ipl_count::30                    764      0.50%     37.70% # number of times we switched to this ipl
system.cpu0.kern.ipl_count::31                  94651     62.30%    100.00% # number of times we switched to this ipl
system.cpu0.kern.ipl_count::total              151932                       # number of times we switched to this ipl
system.cpu0.kern.ipl_good::0                    51900     47.90%     47.90% # number of times we switched to this ipl from a different ipl
system.cpu0.kern.ipl_good::21                      16      0.01%     47.92% # number of times we switched to this ipl from a different ipl
system.cpu0.kern.ipl_good::22                    4529      4.18%     52.10% # number of times we switched to this ipl from a different ipl
system.cpu0.kern.ipl_good::30                     764      0.71%     52.80% # number of times we switched to this ipl from a different ipl
system.cpu0.kern.ipl_good::31                   51140     47.20%    100.00% # number of times we switched to this ipl from a different ipl
system.cpu0.kern.ipl_good::total               108349                       # number of times we switched to this ipl from a different ipl
system.cpu0.kern.ipl_ticks::0            3993418180000     83.78%     83.78% # number of cycles we spent at this ipl
system.cpu0.kern.ipl_ticks::21               71680000      0.00%     83.78% # number of cycles we spent at this ipl
system.cpu0.kern.ipl_ticks::22            14868240000      0.31%     84.09% # number of cycles we spent at this ipl
system.cpu0.kern.ipl_ticks::30             5877520000      0.12%     84.22% # number of cycles we spent at this ipl
system.cpu0.kern.ipl_ticks::31           752414820000     15.78%    100.00% # number of cycles we spent at this ipl
system.cpu0.kern.ipl_ticks::total        4766650440000                       # number of cycles we spent at this ipl
system.cpu0.kern.ipl_used::0                 0.998615                       # fraction of swpipl calls that actually changed the ipl
system.cpu0.kern.ipl_used::21                       1                       # fraction of swpipl calls that actually changed the ipl
system.cpu0.kern.ipl_used::22                       1                       # fraction of swpipl calls that actually changed the ipl
system.cpu0.kern.ipl_used::30                       1                       # fraction of swpipl calls that actually changed the ipl
system.cpu0.kern.ipl_used::31                0.540301                       # fraction of swpipl calls that actually changed the ipl
system.cpu0.kern.ipl_used::total             0.713141                       # fraction of swpipl calls that actually changed the ipl
system.cpu0.kern.syscall::3                        11     10.58%     10.58% # number of syscalls executed
system.cpu0.kern.syscall::6                        10      9.62%     20.19% # number of syscalls executed
system.cpu0.kern.syscall::15                        1      0.96%     21.15% # number of syscalls executed
system.cpu0.kern.syscall::17                        5      4.81%     25.96% # number of syscalls executed
system.cpu0.kern.syscall::20                        1      0.96%     26.92% # number of syscalls executed
system.cpu0.kern.syscall::23                        3      2.88%     29.81% # number of syscalls executed
system.cpu0.kern.syscall::24                        3      2.88%     32.69% # number of syscalls executed
system.cpu0.kern.syscall::33                        3      2.88%     35.58% # number of syscalls executed
system.cpu0.kern.syscall::45                       19     18.27%     53.85% # number of syscalls executed
system.cpu0.kern.syscall::47                        3      2.88%     56.73% # number of syscalls executed
system.cpu0.kern.syscall::59                        2      1.92%     58.65% # number of syscalls executed
system.cpu0.kern.syscall::71                       28     26.92%     85.58% # number of syscalls executed
system.cpu0.kern.syscall::74                        9      8.65%     94.23% # number of syscalls executed
system.cpu0.kern.syscall::92                        1      0.96%     95.19% # number of syscalls executed
system.cpu0.kern.syscall::97                        1      0.96%     96.15% # number of syscalls executed
system.cpu0.kern.syscall::98                        1      0.96%     97.12% # number of syscalls executed
system.cpu0.kern.syscall::132                       3      2.88%    100.00% # number of syscalls executed
system.cpu0.kern.syscall::total                   104                       # number of syscalls executed
[...]
system.cpu3.icache.overall_mshr_miss_rate::cpu3.inst     0.001527                       # mshr miss rate for overall accesses
system.cpu3.icache.overall_mshr_miss_rate::total     0.001527                       # mshr miss rate for overall accesses
system.cpu3.icache.ReadReq_avg_mshr_miss_latency::cpu3.inst 72523.148148                       # average ReadReq mshr miss latency
system.cpu3.icache.ReadReq_avg_mshr_miss_latency::total 72523.148148                       # average ReadReq mshr miss latency
system.cpu3.icache.demand_avg_mshr_miss_latency::cpu3.inst 72523.148148                       # average overall mshr miss latency
system.cpu3.icache.demand_avg_mshr_miss_latency::total 72523.148148                       # average overall mshr miss latency
system.cpu3.icache.overall_avg_mshr_miss_latency::cpu3.inst 72523.148148                       # average overall mshr miss latency
system.cpu3.icache.overall_avg_mshr_miss_latency::total 72523.148148                       # average overall mshr miss latency
system.cpu3.icache.no_allocate_misses               0                       # Number of misses that were no-allocate
system.cpu3.dcache.tags.replacements                5                       # number of replacements
system.cpu3.dcache.tags.tagsinuse          875.538702                       # Cycle average of tags in use
system.cpu3.dcache.tags.total_refs              28793                       # Total number of references to valid blocks.
system.cpu3.dcache.tags.sampled_refs              875                       # Sample count of references to valid blocks.
system.cpu3.dcache.tags.avg_refs            32.906286                       # Average number of references to valid blocks.
system.cpu3.dcache.tags.warmup_cycle                0                       # Cycle when the warmup percentage was hit.
system.cpu3.dcache.tags.occ_blocks::cpu3.data   875.538702                       # Average occupied blocks per requestor
system.cpu3.dcache.tags.occ_percent::cpu3.data     0.855018                       # Average percentage of cache occupancy
system.cpu3.dcache.tags.occ_percent::total     0.855018                       # Average percentage of cache occupancy
system.cpu3.dcache.tags.occ_task_id_blocks::1024          870                       # Occupied blocks per task id
system.cpu3.dcache.tags.age_task_id_blocks_1024::3            3                       # Occupied blocks per task id
system.cpu3.dcache.tags.age_task_id_blocks_1024::4          867                       # Occupied blocks per task id
system.cpu3.dcache.tags.occ_task_id_percent::1024     0.849609                       # Percentage of cache occupancy per task id
system.cpu3.dcache.tags.tag_accesses            24377                       # Number of tag accesses
system.cpu3.dcache.tags.data_accesses           24377                       # Number of data accesses
system.cpu3.dcache.ReadReq_hits::cpu3.data         7688                       # number of ReadReq hits
system.cpu3.dcache.ReadReq_hits::total           7688                       # number of ReadReq hits
system.cpu3.dcache.WriteReq_hits::cpu3.data         4110                       # number of WriteReq hits
system.cpu3.dcache.WriteReq_hits::total          4110                       # number of WriteReq hits
system.cpu3.dcache.LoadLockedReq_hits::cpu3.data          102                       # number of LoadLockedReq hits
system.cpu3.dcache.LoadLockedReq_hits::total          102                       # number of LoadLockedReq hits
system.cpu3.dcache.StoreCondReq_hits::cpu3.data           96                       # number of StoreCondReq hits
system.cpu3.dcache.StoreCondReq_hits::total           96                       # number of StoreCondReq hits
system.cpu3.dcache.demand_hits::cpu3.data        11798                       # number of demand (read+write) hits
system.cpu3.dcache.demand_hits::total           11798                       # number of demand (read+write) hits
system.cpu3.dcache.overall_hits::cpu3.data        11798                       # number of overall hits
system.cpu3.dcache.overall_hits::total          11798                       # number of overall hits
system.cpu3.dcache.ReadReq_misses::cpu3.data          105                       # number of ReadReq misses
system.cpu3.dcache.ReadReq_misses::total          105                       # number of ReadReq misses
system.cpu3.dcache.WriteReq_misses::cpu3.data           16                       # number of WriteReq misses
system.cpu3.dcache.WriteReq_misses::total           16                       # number of WriteReq misses
system.cpu3.dcache.LoadLockedReq_misses::cpu3.data            4                       # number of LoadLockedReq misses
system.cpu3.dcache.LoadLockedReq_misses::total            4                       # number of LoadLockedReq misses
system.cpu3.dcache.StoreCondReq_misses::cpu3.data           10                       # number of StoreCondReq misses
system.cpu3.dcache.StoreCondReq_misses::total           10                       # number of StoreCondReq misses
system.cpu3.dcache.demand_misses::cpu3.data          121                       # number of demand (read+write) misses
system.cpu3.dcache.demand_misses::total           121                       # number of demand (read+write) misses
system.cpu3.dcache.overall_misses::cpu3.data          121                       # number of overall misses
system.cpu3.dcache.overall_misses::total          121                       # number of overall misses
system.cpu3.dcache.ReadReq_miss_latency::cpu3.data      7097750                       # number of ReadReq miss cycles
system.cpu3.dcache.ReadReq_miss_latency::total      7097750                       # number of ReadReq miss cycles
system.cpu3.dcache.WriteReq_miss_latency::cpu3.data      1185990                       # number of WriteReq miss cycles
system.cpu3.dcache.WriteReq_miss_latency::total      1185990                       # number of WriteReq miss cycles
system.cpu3.dcache.LoadLockedReq_miss_latency::cpu3.data       248000                       # number of LoadLockedReq miss cycles
system.cpu3.dcache.LoadLockedReq_miss_latency::total       248000                       # number of LoadLockedReq miss cycles
system.cpu3.dcache.StoreCondReq_miss_latency::cpu3.data       574995                       # number of StoreCondReq miss cycles
system.cpu3.dcache.StoreCondReq_miss_latency::total       574995                       # number of StoreCondReq miss cycles
system.cpu3.dcache.demand_miss_latency::cpu3.data      8283740                       # number of demand (read+write) miss cycles
system.cpu3.dcache.demand_miss_latency::total      8283740                       # number of demand (read+write) miss cycles
system.cpu3.dcache.overall_miss_latency::cpu3.data      8283740                       # number of overall miss cycles
system.cpu3.dcache.overall_miss_latency::total      8283740                       # number of overall miss cycles
system.cpu3.dcache.ReadReq_accesses::cpu3.data         7793                       # number of ReadReq accesses(hits+misses)
system.cpu3.dcache.ReadReq_accesses::total         7793                       # number of ReadReq accesses(hits+misses)
system.cpu3.dcache.WriteReq_accesses::cpu3.data         4126                       # number of WriteReq accesses(hits+misses)
system.cpu3.dcache.WriteReq_accesses::total         4126                       # number of WriteReq accesses(hits+misses)
system.cpu3.dcache.LoadLockedReq_accesses::cpu3.data          106                       # number of LoadLockedReq accesses(hits+misses)
system.cpu3.dcache.LoadLockedReq_accesses::total          106                       # number of LoadLockedReq accesses(hits+misses)
system.cpu3.dcache.StoreCondReq_accesses::cpu3.data          106                       # number of StoreCondReq accesses(hits+misses)
system.cpu3.dcache.StoreCondReq_accesses::total          106                       # number of StoreCondReq accesses(hits+misses)
system.cpu3.dcache.demand_accesses::cpu3.data        11919                       # number of demand (read+write) accesses
system.cpu3.dcache.demand_accesses::total        11919                       # number of demand (read+write) accesses
system.cpu3.dcache.overall_accesses::cpu3.data        11919                       # number of overall (read+write) accesses
system.cpu3.dcache.overall_accesses::total        11919                       # number of overall (read+write) accesses
system.cpu3.dcache.ReadReq_miss_rate::cpu3.data     0.013474                       # miss rate for ReadReq accesses
system.cpu3.dcache.ReadReq_miss_rate::total     0.013474                       # miss rate for ReadReq accesses
system.cpu3.dcache.WriteReq_miss_rate::cpu3.data     0.003878                       # miss rate for WriteReq accesses
system.cpu3.dcache.WriteReq_miss_rate::total     0.003878                       # miss rate for WriteReq accesses
system.cpu3.dcache.LoadLockedReq_miss_rate::cpu3.data     0.037736                       # miss rate for LoadLockedReq accesses
system.cpu3.dcache.LoadLockedReq_miss_rate::total     0.037736                       # miss rate for LoadLockedReq accesses
system.cpu3.dcache.StoreCondReq_miss_rate::cpu3.data     0.094340                       # miss rate for StoreCondReq accesses
system.cpu3.dcache.StoreCondReq_miss_rate::total     0.094340                       # miss rate for StoreCondReq accesses
system.cpu3.dcache.demand_miss_rate::cpu3.data     0.010152                       # miss rate for demand accesses
system.cpu3.dcache.demand_miss_rate::total     0.010152                       # miss rate for demand accesses
system.cpu3.dcache.overall_miss_rate::cpu3.data     0.010152                       # miss rate for overall accesses
system.cpu3.dcache.overall_miss_rate::total     0.010152                       # miss rate for overall accesses
system.cpu3.dcache.ReadReq_avg_miss_latency::cpu3.data 67597.619048                       # average ReadReq miss latency
system.cpu3.dcache.ReadReq_avg_miss_latency::total 67597.619048                       # average ReadReq miss latency
system.cpu3.dcache.WriteReq_avg_miss_latency::cpu3.data 74124.375000                       # average WriteReq miss latency
system.cpu3.dcache.WriteReq_avg_miss_latency::total 74124.375000                       # average WriteReq miss latency
system.cpu3.dcache.LoadLockedReq_avg_miss_latency::cpu3.data        62000                       # average LoadLockedReq miss latency
system.cpu3.dcache.LoadLockedReq_avg_miss_latency::total        62000                       # average LoadLockedReq miss latency
system.cpu3.dcache.StoreCondReq_avg_miss_latency::cpu3.data 57499.500000                       # average StoreCondReq miss latency
system.cpu3.dcache.StoreCondReq_avg_miss_latency::total 57499.500000                       # average StoreCondReq miss latency
system.cpu3.dcache.demand_avg_miss_latency::cpu3.data 68460.661157                       # average overall miss latency
system.cpu3.dcache.demand_avg_miss_latency::total 68460.661157                       # average overall miss latency
system.cpu3.dcache.overall_avg_miss_latency::cpu3.data 68460.661157                       # average overall miss latency
system.cpu3.dcache.overall_avg_miss_latency::total 68460.661157                       # average overall miss latency
system.cpu3.dcache.blocked_cycles::no_mshrs            0                       # number of cycles access was blocked
system.cpu3.dcache.blocked_cycles::no_targets            0                       # number of cycles access was blocked
system.cpu3.dcache.blocked::no_mshrs                0                       # number of cycles access was blocked
system.cpu3.dcache.blocked::no_targets              0                       # number of cycles access was blocked
system.cpu3.dcache.avg_blocked_cycles::no_mshrs          nan                       # average number of cycles each access was blocked
system.cpu3.dcache.avg_blocked_cycles::no_targets          nan                       # average number of cycles each access was blocked
system.cpu3.dcache.fast_writes                      0                       # number of fast writes performed
system.cpu3.dcache.cache_copies                     0                       # number of cache copies performed
system.cpu3.dcache.writebacks::writebacks            4                       # number of writebacks
system.cpu3.dcache.writebacks::total                4                       # number of writebacks
system.cpu3.dcache.ReadReq_mshr_misses::cpu3.data          105                       # number of ReadReq MSHR misses
system.cpu3.dcache.ReadReq_mshr_misses::total          105                       # number of ReadReq MSHR misses
system.cpu3.dcache.WriteReq_mshr_misses::cpu3.data           16                       # number of WriteReq MSHR misses
system.cpu3.dcache.WriteReq_mshr_misses::total           16                       # number of WriteReq MSHR misses
system.cpu3.dcache.LoadLockedReq_mshr_misses::cpu3.data            4                       # number of LoadLockedReq MSHR misses
system.cpu3.dcache.LoadLockedReq_mshr_misses::total            4                       # number of LoadLockedReq MSHR misses
system.cpu3.dcache.StoreCondReq_mshr_misses::cpu3.data           10                       # number of StoreCondReq MSHR misses
system.cpu3.dcache.StoreCondReq_mshr_misses::total           10                       # number of StoreCondReq MSHR misses
system.cpu3.dcache.demand_mshr_misses::cpu3.data          121                       # number of demand (read+write) MSHR misses
system.cpu3.dcache.demand_mshr_misses::total          121                       # number of demand (read+write) MSHR misses
system.cpu3.dcache.overall_mshr_misses::cpu3.data          121                       # number of overall MSHR misses
system.cpu3.dcache.overall_mshr_misses::total          121                       # number of overall MSHR misses
system.cpu3.dcache.ReadReq_mshr_miss_latency::cpu3.data      4721250                       # number of ReadReq MSHR miss cycles
system.cpu3.dcache.ReadReq_mshr_miss_latency::total      4721250                       # number of ReadReq MSHR miss cycles
system.cpu3.dcache.WriteReq_mshr_miss_latency::cpu3.data       690010                       # number of WriteReq MSHR miss cycles
system.cpu3.dcache.WriteReq_mshr_miss_latency::total       690010                       # number of WriteReq MSHR miss cycles
system.cpu3.dcache.LoadLockedReq_mshr_miss_latency::cpu3.data       160000                       # number of LoadLockedReq MSHR miss cycles
system.cpu3.dcache.LoadLockedReq_mshr_miss_latency::total       160000                       # number of LoadLockedReq MSHR miss cycles
system.cpu3.dcache.StoreCondReq_mshr_miss_latency::cpu3.data       300005                       # number of StoreCondReq MSHR miss cycles
system.cpu3.dcache.StoreCondReq_mshr_miss_latency::total       300005                       # number of StoreCondReq MSHR miss cycles
system.cpu3.dcache.demand_mshr_miss_latency::cpu3.data      5411260                       # number of demand (read+write) MSHR miss cycles
system.cpu3.dcache.demand_mshr_miss_latency::total      5411260                       # number of demand (read+write) MSHR miss cycles
system.cpu3.dcache.overall_mshr_miss_latency::cpu3.data      5411260                       # number of overall MSHR miss cycles
system.cpu3.dcache.overall_mshr_miss_latency::total      5411260                       # number of overall MSHR miss cycles
system.cpu3.dcache.WriteReq_mshr_uncacheable_latency::cpu3.data      5500000                       # number of WriteReq MSHR uncacheable cycles
system.cpu3.dcache.WriteReq_mshr_uncacheable_latency::total      5500000                       # number of WriteReq MSHR uncacheable cycles
system.cpu3.dcache.overall_mshr_uncacheable_latency::cpu3.data      5500000                       # number of overall MSHR uncacheable cycles
system.cpu3.dcache.overall_mshr_uncacheable_latency::total      5500000                       # number of overall MSHR uncacheable cycles
system.cpu3.dcache.ReadReq_mshr_miss_rate::cpu3.data     0.013474                       # mshr miss rate for ReadReq accesses
system.cpu3.dcache.ReadReq_mshr_miss_rate::total     0.013474                       # mshr miss rate for ReadReq accesses
system.cpu3.dcache.WriteReq_mshr_miss_rate::cpu3.data     0.003878                       # mshr miss rate for WriteReq accesses
system.cpu3.dcache.WriteReq_mshr_miss_rate::total     0.003878                       # mshr miss rate for WriteReq accesses
system.cpu3.dcache.LoadLockedReq_mshr_miss_rate::cpu3.data     0.037736                       # mshr miss rate for LoadLockedReq accesses
system.cpu3.dcache.LoadLockedReq_mshr_miss_rate::total     0.037736                       # mshr miss rate for LoadLockedReq accesses
system.cpu3.dcache.StoreCondReq_mshr_miss_rate::cpu3.data     0.094340                       # mshr miss rate for StoreCondReq accesses
system.cpu3.dcache.StoreCondReq_mshr_miss_rate::total     0.094340                       # mshr miss rate for StoreCondReq accesses
system.cpu3.dcache.demand_mshr_miss_rate::cpu3.data     0.010152                       # mshr miss rate for demand accesses
system.cpu3.dcache.demand_mshr_miss_rate::total     0.010152                       # mshr miss rate for demand accesses
system.cpu3.dcache.overall_mshr_miss_rate::cpu3.data     0.010152                       # mshr miss rate for overall accesses
system.cpu3.dcache.overall_mshr_miss_rate::total     0.010152                       # mshr miss rate for overall accesses
system.cpu3.dcache.ReadReq_avg_mshr_miss_latency::cpu3.data 44964.285714                       # average ReadReq mshr miss latency
system.cpu3.dcache.ReadReq_avg_mshr_miss_latency::total 44964.285714                       # average ReadReq mshr miss latency
system.cpu3.dcache.WriteReq_avg_mshr_miss_latency::cpu3.data 43125.625000                       # average WriteReq mshr miss latency
system.cpu3.dcache.WriteReq_avg_mshr_miss_latency::total 43125.625000                       # average WriteReq mshr miss latency
system.cpu3.dcache.LoadLockedReq_avg_mshr_miss_latency::cpu3.data        40000                       # average LoadLockedReq mshr miss latency
system.cpu3.dcache.LoadLockedReq_avg_mshr_miss_latency::total        40000                       # average LoadLockedReq mshr miss latency
system.cpu3.dcache.StoreCondReq_avg_mshr_miss_latency::cpu3.data 30000.500000                       # average StoreCondReq mshr miss latency
system.cpu3.dcache.StoreCondReq_avg_mshr_miss_latency::total 30000.500000                       # average StoreCondReq mshr miss latency
system.cpu3.dcache.demand_avg_mshr_miss_latency::cpu3.data 44721.157025                       # average overall mshr miss latency
system.cpu3.dcache.demand_avg_mshr_miss_latency::total 44721.157025                       # average overall mshr miss latency
system.cpu3.dcache.overall_avg_mshr_miss_latency::cpu3.data 44721.157025                       # average overall mshr miss latency
system.cpu3.dcache.overall_avg_mshr_miss_latency::total 44721.157025                       # average overall mshr miss latency
system.cpu3.dcache.WriteReq_avg_mshr_uncacheable_latency::cpu3.data          inf                       # average WriteReq mshr uncacheable latency
system.cpu3.dcache.WriteReq_avg_mshr_uncacheable_latency::total          inf                       # average WriteReq mshr uncacheable latency
system.cpu3.dcache.overall_avg_mshr_uncacheable_latency::cpu3.data          inf                       # average overall mshr uncacheable latency
system.cpu3.dcache.overall_avg_mshr_uncacheable_latency::total          inf                       # average overall mshr uncacheable latency
system.cpu3.dcache.no_allocate_misses               0                       # Number of misses that were no-allocate

---------- End Simulation Statistics   ----------
