
---------- Begin Simulation Statistics ----------
sim_seconds                                  3.078519                       # Number of seconds simulated
sim_ticks                                3078519110000                       # Number of ticks simulated
final_tick                               3078519110000                       # Number of ticks from beginning of simulation (restored from checkpoints and never reset)
sim_freq                                 1000000000000                       # Frequency of simulated ticks
host_inst_rate                                3700398                       # Simulator instruction rate (inst/s)
host_op_rate                                  3700396                       # Simulator op (including micro ops) rate (op/s)
host_tick_rate                           124441477746                       # Simulator tick rate (ticks/s)
host_mem_usage                                 453100                       # Number of bytes of host memory used
host_seconds                                    24.74                       # Real time elapsed on the host
sim_insts                                    91542912                       # Number of instructions simulated
sim_ops                                      91542912                       # Number of ops (including micro ops) simulated
system.voltage_domain.voltage                       1                       # Voltage in Volts
system.clk_domain.clock                          1000                       # Clock period in ticks
system.mem_ctrls.bytes_read::cpu.inst        87036608                       # Number of bytes read from this memory
system.mem_ctrls.bytes_read::cpu.data       183400448                       # Number of bytes read from this memory
system.mem_ctrls.bytes_read::tsunami.ide         4032                       # Number of bytes read from this memory
system.mem_ctrls.bytes_read::total          270441088                       # Number of bytes read from this memory
system.mem_ctrls.bytes_inst_read::cpu.inst     87036608                       # Number of instructions bytes read from this memory
system.mem_ctrls.bytes_inst_read::total      87036608                       # Number of instructions bytes read from this memory
system.mem_ctrls.bytes_written::writebacks     30916032                       # Number of bytes written to this memory
system.mem_ctrls.bytes_written::tsunami.ide      2832384                       # Number of bytes written to this memory
system.mem_ctrls.bytes_written::total        33748416                       # Number of bytes written to this memory
system.mem_ctrls.num_reads::cpu.inst          1359947                       # Number of read requests responded to by this memory
system.mem_ctrls.num_reads::cpu.data          2865632                       # Number of read requests responded to by this memory
system.mem_ctrls.num_reads::tsunami.ide            63                       # Number of read requests responded to by this memory
system.mem_ctrls.num_reads::total             4225642                       # Number of read requests responded to by this memory
system.mem_ctrls.num_writes::writebacks        483063                       # Number of write requests responded to by this memory
system.mem_ctrls.num_writes::tsunami.ide        44256                       # Number of write requests responded to by this memory
system.mem_ctrls.num_writes::total             527319                       # Number of write requests responded to by this memory
system.mem_ctrls.bw_read::cpu.inst           28272232                       # Total read bandwidth from this memory (bytes/s)
system.mem_ctrls.bw_read::cpu.data           59574244                       # Total read bandwidth from this memory (bytes/s)
system.mem_ctrls.bw_read::tsunami.ide            1310                       # Total read bandwidth from this memory (bytes/s)
system.mem_ctrls.bw_read::total              87847786                       # Total read bandwidth from this memory (bytes/s)
system.mem_ctrls.bw_inst_read::cpu.inst      28272232                       # Instruction read bandwidth from this memory (bytes/s)
system.mem_ctrls.bw_inst_read::total         28272232                       # Instruction read bandwidth from this memory (bytes/s)
system.mem_ctrls.bw_write::writebacks        10042501                       # Write bandwidth from this memory (bytes/s)
system.mem_ctrls.bw_write::tsunami.ide         920048                       # Write bandwidth from this memory (bytes/s)
system.mem_ctrls.bw_write::total             10962549                       # Write bandwidth from this memory (bytes/s)
system.mem_ctrls.bw_total::writebacks        10042501                       # Total bandwidth to/from this memory (bytes/s)
system.mem_ctrls.bw_total::cpu.inst          28272232                       # Total bandwidth to/from this memory (bytes/s)
system.mem_ctrls.bw_total::cpu.data          59574244                       # Total bandwidth to/from this memory (bytes/s)
system.mem_ctrls.bw_total::tsunami.ide         921357                       # Total bandwidth to/from this memory (bytes/s)
system.mem_ctrls.bw_total::total             98810335                       # Total bandwidth to/from this memory (bytes/s)
system.mem_ctrls.readReqs                           0                       # Number of read requests accepted
system.mem_ctrls.writeReqs                          0                       # Number of write requests accepted
system.mem_ctrls.readBursts                         0                       # Number of DRAM read bursts, including those serviced by the write queue
system.mem_ctrls.writeBursts                        0                       # Number of DRAM write bursts, including those merged in the write queue
system.mem_ctrls.bytesReadDRAM                      0                       # Total number of bytes read from DRAM
system.mem_ctrls.bytesReadWrQ                       0                       # Total number of bytes read from write queue
system.mem_ctrls.bytesWritten                       0                       # Total number of bytes written to DRAM
system.mem_ctrls.bytesReadSys                       0                       # Total read bytes from the system interface side
system.mem_ctrls.bytesWrittenSys                    0                       # Total written bytes from the system interface side
system.mem_ctrls.servicedByWrQ                      0                       # Number of DRAM read bursts serviced by the write queue
system.mem_ctrls.mergedWrBursts                     0                       # Number of DRAM write bursts merged with an existing one
system.mem_ctrls.neitherReadNorWriteReqs            0                       # Number of requests that are neither read nor write
system.mem_ctrls.perBankRdBursts::0                 0                       # Per bank write bursts
system.mem_ctrls.perBankRdBursts::1                 0                       # Per bank write bursts
system.mem_ctrls.perBankRdBursts::2                 0                       # Per bank write bursts
system.mem_ctrls.perBankRdBursts::3                 0                       # Per bank write bursts
system.mem_ctrls.perBankRdBursts::4                 0                       # Per bank write bursts
system.mem_ctrls.perBankRdBursts::5                 0                       # Per bank write bursts
system.mem_ctrls.perBankRdBursts::6                 0                       # Per bank write bursts
system.mem_ctrls.perBankRdBursts::7                 0                       # Per bank write bursts
system.mem_ctrls.perBankRdBursts::8                 0                       # Per bank write bursts
system.mem_ctrls.perBankRdBursts::9                 0                       # Per bank write bursts
system.mem_ctrls.perBankRdBursts::10                0                       # Per bank write bursts
system.mem_ctrls.perBankRdBursts::11                0                       # Per bank write bursts
system.mem_ctrls.perBankRdBursts::12                0                       # Per bank write bursts
system.mem_ctrls.perBankRdBursts::13                0                       # Per bank write bursts
system.mem_ctrls.perBankRdBursts::14                0                       # Per bank write bursts
system.mem_ctrls.perBankRdBursts::15                0                       # Per bank write bursts
system.mem_ctrls.perBankWrBursts::0                 0                       # Per bank write bursts
system.mem_ctrls.perBankWrBursts::1                 0                       # Per bank write bursts
system.mem_ctrls.perBankWrBursts::2                 0                       # Per bank write bursts
system.mem_ctrls.perBankWrBursts::3                 0                       # Per bank write bursts
system.mem_ctrls.perBankWrBursts::4                 0                       # Per bank write bursts
system.mem_ctrls.perBankWrBursts::5                 0                       # Per bank write bursts
system.mem_ctrls.perBankWrBursts::6                 0                       # Per bank write bursts
system.mem_ctrls.perBankWrBursts::7                 0                       # Per bank write bursts
system.mem_ctrls.perBankWrBursts::8                 0                       # Per bank write bursts
system.mem_ctrls.perBankWrBursts::9                 0                       # Per bank write bursts
system.mem_ctrls.perBankWrBursts::10                0                       # Per bank write bursts
system.mem_ctrls.perBankWrBursts::11                0                       # Per bank write bursts
system.mem_ctrls.perBankWrBursts::12                0                       # Per bank write bursts
system.mem_ctrls.perBankWrBursts::13                0                       # Per bank write bursts
system.mem_ctrls.perBankWrBursts::14                0                       # Per bank write bursts
system.mem_ctrls.perBankWrBursts::15                0                       # Per bank write bursts
system.mem_ctrls.numRdRetry                         0                       # Number of times read queue was full causing retry
system.mem_ctrls.numWrRetry                         0                       # Number of times write queue was full causing retry
system.mem_ctrls.totGap                             0                       # Total gap between requests
system.mem_ctrls.readPktSize::0                     0                       # Read request sizes (log2)
system.mem_ctrls.readPktSize::1                     0                       # Read request sizes (log2)
system.mem_ctrls.readPktSize::2                     0                       # Read request sizes (log2)
system.mem_ctrls.readPktSize::3                     0                       # Read request sizes (log2)
system.mem_ctrls.readPktSize::4                     0                       # Read request sizes (log2)
system.mem_ctrls.readPktSize::5                     0                       # Read request sizes (log2)
system.mem_ctrls.readPktSize::6                     0                       # Read request sizes (log2)
system.mem_ctrls.writePktSize::0                    0                       # Write request sizes (log2)
system.mem_ctrls.writePktSize::1                    0                       # Write request sizes (log2)
system.mem_ctrls.writePktSize::2                    0                       # Write request sizes (log2)
system.mem_ctrls.writePktSize::3                    0                       # Write request sizes (log2)
system.mem_ctrls.writePktSize::4                    0                       # Write request sizes (log2)
system.mem_ctrls.writePktSize::5                    0                       # Write request sizes (log2)
system.mem_ctrls.writePktSize::6                    0                       # Write request sizes (log2)
system.mem_ctrls.rdQLenPdf::0                       0                       # What read queue length does an incoming req see
system.mem_ctrls.rdQLenPdf::1                       0                       # What read queue length does an incoming req see
system.mem_ctrls.rdQLenPdf::2                       0                       # What read queue length does an incoming req see
system.mem_ctrls.rdQLenPdf::3                       0                       # What read queue length does an incoming req see
system.mem_ctrls.rdQLenPdf::4                       0                       # What read queue length does an incoming req see
system.mem_ctrls.rdQLenPdf::5                       0                       # What read queue length does an incoming req see
system.mem_ctrls.rdQLenPdf::6                       0                       # What read queue length does an incoming req see
system.mem_ctrls.rdQLenPdf::7                       0                       # What read queue length does an incoming req see
system.mem_ctrls.rdQLenPdf::8                       0                       # What read queue length does an incoming req see
system.mem_ctrls.rdQLenPdf::9                       0                       # What read queue length does an incoming req see
system.mem_ctrls.rdQLenPdf::10                      0                       # What read queue length does an incoming req see
system.mem_ctrls.rdQLenPdf::11                      0                       # What read queue length does an incoming req see
system.mem_ctrls.rdQLenPdf::12                      0                       # What read queue length does an incoming req see
system.mem_ctrls.rdQLenPdf::13                      0                       # What read queue length does an incoming req see
system.mem_ctrls.rdQLenPdf::14                      0                       # What read queue length does an incoming req see
system.mem_ctrls.rdQLenPdf::15                      0                       # What read queue length does an incoming req see
system.mem_ctrls.rdQLenPdf::16                      0                       # What read queue length does an incoming req see
system.mem_ctrls.rdQLenPdf::17                      0                       # What read queue length does an incoming req see
system.mem_ctrls.rdQLenPdf::18                      0                       # What read queue length does an incoming req see
system.mem_ctrls.rdQLenPdf::19                      0                       # What read queue length does an incoming req see
system.mem_ctrls.rdQLenPdf::20                      0                       # What read queue length does an incoming req see
system.mem_ctrls.rdQLenPdf::21                      0                       # What read queue length does an incoming req see
system.mem_ctrls.rdQLenPdf::22                      0                       # What read queue length does an incoming req see
system.mem_ctrls.rdQLenPdf::23                      0                       # What read queue length does an incoming req see
system.mem_ctrls.rdQLenPdf::24                      0                       # What read queue length does an incoming req see
system.mem_ctrls.rdQLenPdf::25                      0                       # What read queue length does an incoming req see
system.mem_ctrls.rdQLenPdf::26                      0                       # What read queue length does an incoming req see
system.mem_ctrls.rdQLenPdf::27                      0                       # What read queue length does an incoming req see
system.mem_ctrls.rdQLenPdf::28                      0                       # What read queue length does an incoming req see
system.mem_ctrls.rdQLenPdf::29                      0                       # What read queue length does an incoming req see
system.mem_ctrls.rdQLenPdf::30                      0                       # What read queue length does an incoming req see
system.mem_ctrls.rdQLenPdf::31                      0                       # What read queue length does an incoming req see
system.mem_ctrls.wrQLenPdf::0                       0                       # What write queue length does an incoming req see
system.mem_ctrls.wrQLenPdf::1                       0                       # What write queue length does an incoming req see
system.mem_ctrls.wrQLenPdf::2                       0                       # What write queue length does an incoming req see
system.mem_ctrls.wrQLenPdf::3                       0                       # What write queue length does an incoming req see
system.mem_ctrls.wrQLenPdf::4                       0                       # What write queue length does an incoming req see
system.mem_ctrls.wrQLenPdf::5                       0                       # What write queue length does an incoming req see
system.mem_ctrls.wrQLenPdf::6                       0                       # What write queue length does an incoming req see
system.mem_ctrls.wrQLenPdf::7                       0                       # What write queue length does an incoming req see
system.mem_ctrls.wrQLenPdf::8                       0                       # What write queue length does an incoming req see
system.mem_ctrls.wrQLenPdf::9                       0                       # What write queue length does an incoming req see
system.mem_ctrls.wrQLenPdf::10                      0                       # What write queue length does an incoming req see
system.mem_ctrls.wrQLenPdf::11                      0                       # What write queue length does an incoming req see
system.mem_ctrls.wrQLenPdf::12                      0                       # What write queue length does an incoming req see
system.mem_ctrls.wrQLenPdf::13                      0                       # What write queue length does an incoming req see
system.mem_ctrls.wrQLenPdf::14                      0                       # What write queue length does an incoming req see
system.mem_ctrls.wrQLenPdf::15                      0                       # What write queue length does an incoming req see
system.mem_ctrls.wrQLenPdf::16                      0                       # What write queue length does an incoming req see
system.mem_ctrls.wrQLenPdf::17                      0                       # What write queue length does an incoming req see
system.mem_ctrls.wrQLenPdf::18                      0                       # What write queue length does an incoming req see
system.mem_ctrls.wrQLenPdf::19                      0                       # What write queue length does an incoming req see
system.mem_ctrls.wrQLenPdf::20                      0                       # What write queue length does an incoming req see
system.mem_ctrls.wrQLenPdf::21                      0                       # What write queue length does an incoming req see
system.mem_ctrls.wrQLenPdf::22                      0                       # What write queue length does an incoming req see
system.mem_ctrls.wrQLenPdf::23                      0                       # What write queue length does an incoming req see
system.mem_ctrls.wrQLenPdf::24                      0                       # What write queue length does an incoming req see
system.mem_ctrls.wrQLenPdf::25                      0                       # What write queue length does an incoming req see
system.mem_ctrls.wrQLenPdf::26                      0                       # What write queue length does an incoming req see
system.mem_ctrls.wrQLenPdf::27                      0                       # What write queue length does an incoming req see
system.mem_ctrls.wrQLenPdf::28                      0                       # What write queue length does an incoming req see
system.mem_ctrls.wrQLenPdf::29                      0                       # What write queue length does an incoming req see
system.mem_ctrls.wrQLenPdf::30                      0                       # What write queue length does an incoming req see
system.mem_ctrls.wrQLenPdf::31                      0                       # What write queue length does an incoming req see
system.mem_ctrls.wrQLenPdf::32                      0                       # What write queue length does an incoming req see
system.mem_ctrls.wrQLenPdf::33                      0                       # What write queue length does an incoming req see
system.mem_ctrls.wrQLenPdf::34                      0                       # What write queue length does an incoming req see
system.mem_ctrls.wrQLenPdf::35                      0                       # What write queue length does an incoming req see
system.mem_ctrls.wrQLenPdf::36                      0                       # What write queue length does an incoming req see
system.mem_ctrls.wrQLenPdf::37                      0                       # What write queue length does an incoming req see
system.mem_ctrls.wrQLenPdf::38                      0                       # What write queue length does an incoming req see
system.mem_ctrls.wrQLenPdf::39                      0                       # What write queue length does an incoming req see
system.mem_ctrls.wrQLenPdf::40                      0                       # What write queue length does an incoming req see
system.mem_ctrls.wrQLenPdf::41                      0                       # What write queue length does an incoming req see
system.mem_ctrls.wrQLenPdf::42                      0                       # What write queue length does an incoming req see
system.mem_ctrls.wrQLenPdf::43                      0                       # What write queue length does an incoming req see
system.mem_ctrls.wrQLenPdf::44                      0                       # What write queue length does an incoming req see
system.mem_ctrls.wrQLenPdf::45                      0                       # What write queue length does an incoming req see
system.mem_ctrls.wrQLenPdf::46                      0                       # What write queue length does an incoming req see
system.mem_ctrls.wrQLenPdf::47                      0                       # What write queue length does an incoming req see
system.mem_ctrls.wrQLenPdf::48                      0                       # What write queue length does an incoming req see
system.mem_ctrls.wrQLenPdf::49                      0                       # What write queue length does an incoming req see
system.mem_ctrls.wrQLenPdf::50                      0                       # What write queue length does an incoming req see
system.mem_ctrls.wrQLenPdf::51                      0                       # What write queue length does an incoming req see
system.mem_ctrls.wrQLenPdf::52                      0                       # What write queue length does an incoming req see
system.mem_ctrls.wrQLenPdf::53                      0                       # What write queue length does an incoming req see
system.mem_ctrls.wrQLenPdf::54                      0                       # What write queue length does an incoming req see
system.mem_ctrls.wrQLenPdf::55                      0                       # What write queue length does an incoming req see
system.mem_ctrls.wrQLenPdf::56                      0                       # What write queue length does an incoming req see
system.mem_ctrls.wrQLenPdf::57                      0                       # What write queue length does an incoming req see
system.mem_ctrls.wrQLenPdf::58                      0                       # What write queue length does an incoming req see
system.mem_ctrls.wrQLenPdf::59                      0                       # What write queue length does an incoming req see
system.mem_ctrls.wrQLenPdf::60                      0                       # What write queue length does an incoming req see
system.mem_ctrls.wrQLenPdf::61                      0                       # What write queue length does an incoming req see
system.mem_ctrls.wrQLenPdf::62                      0                       # What write queue length does an incoming req see
system.mem_ctrls.wrQLenPdf::63                      0                       # What write queue length does an incoming req see
system.mem_ctrls.totQLat                            0                       # Total ticks spent queuing
system.mem_ctrls.totMemAccLat                       0                       # Total ticks spent from burst creation until serviced by the DRAM
system.mem_ctrls.totBusLat                          0                       # Total ticks spent in databus transfers
system.mem_ctrls.avgQLat                          nan                       # Average queueing delay per DRAM burst
system.mem_ctrls.avgBusLat                        nan                       # Average bus latency per DRAM burst
system.mem_ctrls.avgMemAccLat                     nan                       # Average memory access latency per DRAM burst
system.mem_ctrls.avgRdBW                         0.00                       # Average DRAM read bandwidth in MiByte/s
system.mem_ctrls.avgWrBW                         0.00                       # Average achieved write bandwidth in MiByte/s
system.mem_ctrls.avgRdBWSys                      0.00                       # Average system read bandwidth in MiByte/s
system.mem_ctrls.avgWrBWSys                      0.00                       # Average system write bandwidth in MiByte/s
system.mem_ctrls.peakBW                      12800.00                       # Theoretical peak bandwidth in MiByte/s
system.mem_ctrls.busUtil                         0.00                       # Data bus utilization in percentage
system.mem_ctrls.busUtilRead                     0.00                       # Data bus utilization in percentage for reads
system.mem_ctrls.busUtilWrite                    0.00                       # Data bus utilization in percentage for writes
system.mem_ctrls.avgRdQLen                       0.00                       # Average read queue length when enqueuing
system.mem_ctrls.avgWrQLen                       0.00                       # Average write queue length when enqueuing
system.mem_ctrls.readRowHits                        0                       # Number of row buffer hits during reads
system.mem_ctrls.writeRowHits                       0                       # Number of row buffer hits during writes
system.mem_ctrls.readRowHitRate                   nan                       # Row buffer hit rate for reads
system.mem_ctrls.writeRowHitRate                  nan                       # Row buffer hit rate for writes
system.mem_ctrls.avgGap                           nan                       # Average gap between requests
system.mem_ctrls.pageHitRate                      nan                       # Row buffer hit rate, read and write combined
system.mem_ctrls.memoryStateTime::IDLE   2975713932500                       # Time in different power states
system.mem_ctrls.memoryStateTime::REF    102798280000                       # Time in different power states
system.mem_ctrls.memoryStateTime::PRE_PDN            0                       # Time in different power states
system.mem_ctrls.memoryStateTime::ACT               0                       # Time in different power states
system.mem_ctrls.memoryStateTime::ACT_PDN            0                       # Time in different power states
system.mem_ctrls.actEnergy::0                       0                       # Energy for activate commands per rank (pJ)
system.mem_ctrls.actEnergy::1                       0                       # Energy for activate commands per rank (pJ)
system.mem_ctrls.preEnergy::0                       0                       # Energy for precharge commands per rank (pJ)
system.mem_ctrls.preEnergy::1                       0                       # Energy for precharge commands per rank (pJ)
system.mem_ctrls.readEnergy::0                      0                       # Energy for read commands per rank (pJ)
system.mem_ctrls.readEnergy::1                      0                       # Energy for read commands per rank (pJ)
system.mem_ctrls.writeEnergy::0                     0                       # Energy for write commands per rank (pJ)
system.mem_ctrls.writeEnergy::1                     0                       # Energy for write commands per rank (pJ)
system.mem_ctrls.refreshEnergy::0        201073435680                       # Energy for refresh commands per rank (pJ)
system.mem_ctrls.refreshEnergy::1        201073435680                       # Energy for refresh commands per rank (pJ)
system.mem_ctrls.actBackEnergy::0         66595493430                       # Energy for active background per rank (pJ)
system.mem_ctrls.actBackEnergy::1         66595493430                       # Energy for active background per rank (pJ)
system.mem_ctrls.preBackEnergy::0        1788690219750                       # Energy for precharge background per rank (pJ)
system.mem_ctrls.preBackEnergy::1        1788690219750                       # Energy for precharge background per rank (pJ)
system.mem_ctrls.totalEnergy::0          2056359148860                       # Total energy per rank (pJ)
system.mem_ctrls.totalEnergy::1          2056359148860                       # Total energy per rank (pJ)
system.mem_ctrls.averagePower::0           667.971740                       # Core power per rank (mW)
system.mem_ctrls.averagePower::1           667.971740                       # Core power per rank (mW)
system.membus.trans_dist::ReadReq             3910298                       # Transaction distribution
system.membus.trans_dist::ReadResp            3910298                       # Transaction distribution
system.membus.trans_dist::WriteReq              10885                       # Transaction distribution
system.membus.trans_dist::WriteResp             10885                       # Transaction distribution
system.membus.trans_dist::Writeback            483063                       # Transaction distribution
system.membus.trans_dist::WriteInvalidateReq        44256                       # Transaction distribution
system.membus.trans_dist::WriteInvalidateResp        44256                       # Transaction distribution
system.membus.trans_dist::UpgradeReq               62                       # Transaction distribution
system.membus.trans_dist::UpgradeResp              62                       # Transaction distribution
system.membus.trans_dist::ReadExReq            322823                       # Transaction distribution
system.membus.trans_dist::ReadExResp           322823                       # Transaction distribution
system.membus.pkt_count_system.iocache.mem_side::system.mem_ctrls.port        88932                       # Packet count per connected master and slave (bytes)
system.membus.pkt_count_system.iocache.mem_side::total        88932                       # Packet count per connected master and slave (bytes)
system.membus.pkt_count_system.cpu.icache.mem_side::system.mem_ctrls.port      2720016                       # Packet count per connected master and slave (bytes)
system.membus.pkt_count_system.cpu.icache.mem_side::total      2720016                       # Packet count per connected master and slave (bytes)
system.membus.pkt_count_system.cpu.dcache.mem_side::system.bridge.slave        36312                       # Packet count per connected master and slave (bytes)
system.membus.pkt_count_system.cpu.dcache.mem_side::system.mem_ctrls.port      6214451                       # Packet count per connected master and slave (bytes)
system.membus.pkt_count_system.cpu.dcache.mem_side::total      6250763                       # Packet count per connected master and slave (bytes)
system.membus.pkt_count::total                9059711                       # Packet count per connected master and slave (bytes)
system.membus.pkt_size_system.iocache.mem_side::system.mem_ctrls.port      2845824                       # Cumulative packet size per connected master and slave (bytes)
system.membus.pkt_size_system.iocache.mem_side::total      2845824                       # Cumulative packet size per connected master and slave (bytes)
system.membus.pkt_size_system.cpu.icache.mem_side::system.mem_ctrls.port     87040512                       # Cumulative packet size per connected master and slave (bytes)
system.membus.pkt_size_system.cpu.icache.mem_side::total     87040512                       # Cumulative packet size per connected master and slave (bytes)
system.membus.pkt_size_system.cpu.dcache.mem_side::system.bridge.slave        51015                       # Cumulative packet size per connected master and slave (bytes)
system.membus.pkt_size_system.cpu.dcache.mem_side::system.mem_ctrls.port    214316480                       # Cumulative packet size per connected master and slave (bytes)
system.membus.pkt_size_system.cpu.dcache.mem_side::total    214367495                       # Cumulative packet size per connected master and slave (bytes)
system.membus.pkt_size::total               304253831                       # Cumulative packet size per connected master and slave (bytes)
system.membus.snoops                                0                       # Total snoops (count)
system.membus.snoop_fanout::samples           4753231                       # Request fanout histogram
system.membus.snoop_fanout::mean                    2                       # Request fanout histogram
system.membus.snoop_fanout::stdev                   0                       # Request fanout histogram
system.membus.snoop_fanout::underflows              0      0.00%      0.00% # Request fanout histogram
system.membus.snoop_fanout::0                       0      0.00%      0.00% # Request fanout histogram
system.membus.snoop_fanout::1                       0      0.00%      0.00% # Request fanout histogram
system.membus.snoop_fanout::2                 4753231    100.00%    100.00% # Request fanout histogram
system.membus.snoop_fanout::3                       0      0.00%    100.00% # Request fanout histogram
system.membus.snoop_fanout::overflows               0      0.00%    100.00% # Request fanout histogram
system.membus.snoop_fanout::min_value               2                       # Request fanout histogram
system.membus.snoop_fanout::max_value               2                       # Request fanout histogram
system.membus.snoop_fanout::total             4753231                       # Request fanout histogram
system.iocache.tags.replacements                44450                       # number of replacements
system.iocache.tags.tagsinuse                0.787268                       # Cycle average of tags in use
system.iocache.tags.total_refs                      0                       # Total number of references to valid blocks.
system.iocache.tags.sampled_refs                44450                       # Sample count of references to valid blocks.
system.iocache.tags.avg_refs                        0                       # Average number of references to valid blocks.
system.iocache.tags.warmup_cycle         2927043010017                       # Cycle when the warmup percentage was hit.
system.iocache.tags.occ_blocks::tsunami.ide     0.787268                       # Average occupied blocks per requestor
system.iocache.tags.occ_percent::tsunami.ide     0.049204                       # Average percentage of cache occupancy
system.iocache.tags.occ_percent::total       0.049204                       # Average percentage of cache occupancy
system.iocache.tags.occ_task_id_blocks::1023           16                       # Occupied blocks per task id
system.iocache.tags.age_task_id_blocks_1023::4           16                       # Occupied blocks per task id
system.iocache.tags.occ_task_id_percent::1023            1                       # Percentage of cache occupancy per task id
system.iocache.tags.tag_accesses               400194                       # Number of tag accesses
system.iocache.tags.data_accesses              400194                       # Number of data accesses
system.iocache.WriteInvalidateReq_hits::tsunami.ide        44256                       # number of WriteInvalidateReq hits
system.iocache.WriteInvalidateReq_hits::total        44256                       # number of WriteInvalidateReq hits
system.iocache.ReadReq_misses::tsunami.ide          210                       # number of ReadReq misses
system.iocache.ReadReq_misses::total              210                       # number of ReadReq misses
system.iocache.demand_misses::tsunami.ide          210                       # number of demand (read+write) misses
system.iocache.demand_misses::total               210                       # number of demand (read+write) misses
system.iocache.overall_misses::tsunami.ide          210                       # number of overall misses
system.iocache.overall_misses::total              210                       # number of overall misses
system.iocache.ReadReq_accesses::tsunami.ide          210                       # number of ReadReq accesses(hits+misses)
system.iocache.ReadReq_accesses::total            210                       # number of ReadReq accesses(hits+misses)
system.iocache.WriteInvalidateReq_accesses::tsunami.ide        44256                       # number of WriteInvalidateReq accesses(hits+misses)
system.iocache.WriteInvalidateReq_accesses::total        44256                       # number of WriteInvalidateReq accesses(hits+misses)
system.iocache.demand_accesses::tsunami.ide          210                       # number of demand (read+write) accesses
system.iocache.demand_accesses::total             210                       # number of demand (read+write) accesses
system.iocache.overall_accesses::tsunami.ide          210                       # number of overall (read+write) accesses
system.iocache.overall_accesses::total            210                       # number of overall (read+write) accesses
system.iocache.ReadReq_miss_rate::tsunami.ide            1                       # miss rate for ReadReq accesses
system.iocache.ReadReq_miss_rate::total             1                       # miss rate for ReadReq accesses
system.iocache.demand_miss_rate::tsunami.ide            1                       # miss rate for demand accesses
system.iocache.demand_miss_rate::total              1                       # miss rate for demand accesses
system.iocache.overall_miss_rate::tsunami.ide            1                       # miss rate for overall accesses
system.iocache.overall_miss_rate::total             1                       # miss rate for overall accesses
system.iocache.blocked_cycles::no_mshrs             0                       # number of cycles access was blocked
system.iocache.blocked_cycles::no_targets            0                       # number of cycles access was blocked
system.iocache.blocked::no_mshrs                    0                       # number of cycles access was blocked
system.iocache.blocked::no_targets                  0                       # number of cycles access was blocked
system.iocache.avg_blocked_cycles::no_mshrs          nan                       # average number of cycles each access was blocked
system.iocache.avg_blocked_cycles::no_targets          nan                       # average number of cycles each access was blocked
system.iocache.fast_writes                      44256                       # number of fast writes performed
system.iocache.cache_copies                         0                       # number of cache copies performed
system.iocache.no_allocate_misses                   0                       # Number of misses that were no-allocate
system.disk0.dma_read_full_pages                    0                       # Number of full page size DMA reads (not PRD).
system.disk0.dma_read_bytes                      4096                       # Number of bytes transfered via DMA reads (not PRD).
system.disk0.dma_read_txs                           1                       # Number of DMA read transactions (not PRD).
system.disk0.dma_write_full_pages                 326                       # Number of full page size DMA writes.
system.disk0.dma_write_bytes                  2824192                       # Number of bytes transfered via DMA writes.
system.disk0.dma_write_txs                        365                       # Number of DMA write transactions.
system.disk2.dma_read_full_pages                    0                       # Number of full page size DMA reads (not PRD).
system.disk2.dma_read_bytes                         0                       # Number of bytes transfered via DMA reads (not PRD).
system.disk2.dma_read_txs                           0                       # Number of DMA read transactions (not PRD).
system.disk2.dma_write_full_pages                   1                       # Number of full page size DMA writes.
system.disk2.dma_write_bytes                     8192                       # Number of bytes transfered via DMA writes.
system.disk2.dma_write_txs                          1                       # Number of DMA write transactions.
system.cpu_voltage_domain.voltage                   1                       # Voltage in Volts
system.cpu_clk_domain.clock                     10000                       # Clock period in ticks
system.cpu.dtb.fetch_hits                           0                       # ITB hits
system.cpu.dtb.fetch_misses                         0                       # ITB misses
system.cpu.dtb.fetch_acv                            0                       # ITB acv
system.cpu.dtb.fetch_accesses                       0                       # ITB accesses
system.cpu.dtb.read_hits                     16031668                       # DTB read hits
system.cpu.dtb.read_misses                      12421                       # DTB read misses
system.cpu.dtb.read_acv                            98                       # DTB read access violations
system.cpu.dtb.read_accesses                   847072                       # DTB read accesses
system.cpu.dtb.write_hits                     8294270                       # DTB write hits
system.cpu.dtb.write_misses                      1307                       # DTB write misses
system.cpu.dtb.write_acv                          169                       # DTB write access violations
system.cpu.dtb.write_accesses                  339318                       # DTB write accesses
system.cpu.dtb.data_hits                     24325938                       # DTB hits
system.cpu.dtb.data_misses                      13728                       # DTB misses
system.cpu.dtb.data_acv                           267                       # DTB access violations
system.cpu.dtb.data_accesses                  1186390                       # DTB accesses
system.cpu.itb.fetch_hits                     5901088                       # ITB hits
system.cpu.itb.fetch_misses                      6145                       # ITB misses
system.cpu.itb.fetch_acv                            1                       # ITB acv
system.cpu.itb.fetch_accesses                 5907233                       # ITB accesses
system.cpu.itb.read_hits                            0                       # DTB read hits
system.cpu.itb.read_misses                          0                       # DTB read misses
system.cpu.itb.read_acv                             0                       # DTB read access violations
system.cpu.itb.read_accesses                        0                       # DTB read accesses
system.cpu.itb.write_hits                           0                       # DTB write hits
system.cpu.itb.write_misses                         0                       # DTB write misses
system.cpu.itb.write_acv                            0                       # DTB write access violations
system.cpu.itb.write_accesses                       0                       # DTB write accesses
system.cpu.itb.data_hits                            0                       # DTB hits
system.cpu.itb.data_misses                          0                       # DTB misses
system.cpu.itb.data_acv                             0                       # DTB access violations
system.cpu.itb.data_accesses                        0                       # DTB accesses
system.cpu.numCycles                        307858960                       # number of cpu cycles simulated
system.cpu.numWorkItemsStarted                      0                       # number of work items this cpu started
system.cpu.numWorkItemsCompleted                    0                       # number of work items this cpu completed
system.cpu.committedInsts                    91542912                       # Number of instructions committed
system.cpu.committedOps                      91542912                       # Number of ops (including micro ops) committed
system.cpu.num_int_alu_accesses              88575159                       # Number of integer alu accesses
system.cpu.num_fp_alu_accesses                 390415                       # Number of float alu accesses
system.cpu.num_func_calls                     2830774                       # number of times a function call or return occured
system.cpu.num_conditional_control_insts     11656145                       # number of instructions that are conditional controls
system.cpu.num_int_insts                     88575159                       # number of integer instructions
system.cpu.num_fp_insts                        390415                       # number of float instructions
system.cpu.num_int_register_reads           121721485                       # number of times the integer registers were read
system.cpu.num_int_register_writes           67441275                       # number of times the integer registers were written
system.cpu.num_fp_register_reads               176149                       # number of times the floating registers were read
system.cpu.num_fp_register_writes              179033                       # number of times the floating registers were written
system.cpu.num_mem_refs                      24384866                       # number of memory refs
system.cpu.num_load_insts                    16072731                       # Number of load instructions
system.cpu.num_store_insts                    8312135                       # Number of store instructions
system.cpu.num_idle_cycles               216300004.588389                       # Number of idle cycles
system.cpu.num_busy_cycles               91558955.411611                       # Number of busy cycles
system.cpu.not_idle_fraction                 0.297406                       # Percentage of non-idle cycles
system.cpu.idle_fraction                     0.702594                       # Percentage of idle cycles
system.cpu.Branches                          15112359                       # Number of branches fetched
system.cpu.op_class::No_OpClass               1600282      1.75%      1.75% # Class of executed instruction
system.cpu.op_class::IntAlu                  63734978     69.61%     71.36% # Class of executed instruction
system.cpu.op_class::IntMult                   156633      0.17%     71.53% # Class of executed instruction
system.cpu.op_class::IntDiv                         0      0.00%     71.53% # Class of executed instruction
system.cpu.op_class::FloatAdd                   84887      0.09%     71.62% # Class of executed instruction
system.cpu.op_class::FloatCmp                       0      0.00%     71.62% # Class of executed instruction
system.cpu.op_class::FloatCvt                       0      0.00%     71.62% # Class of executed instruction
system.cpu.op_class::FloatMult                      0      0.00%     71.62% # Class of executed instruction
system.cpu.op_class::FloatDiv                    4189      0.00%     71.63% # Class of executed instruction
system.cpu.op_class::FloatSqrt                      0      0.00%     71.63% # Class of executed instruction
system.cpu.op_class::SimdAdd                        0      0.00%     71.63% # Class of executed instruction
system.cpu.op_class::SimdAddAcc                     0      0.00%     71.63% # Class of executed instruction
system.cpu.op_class::SimdAlu                        0      0.00%     71.63% # Class of executed instruction
system.cpu.op_class::SimdCmp                        0      0.00%     71.63% # Class of executed instruction
system.cpu.op_class::SimdCvt                        0      0.00%     71.63% # Class of executed instruction
system.cpu.op_class::SimdMisc                       0      0.00%     71.63% # Class of executed instruction
system.cpu.op_class::SimdMult                       0      0.00%     71.63% # Class of executed instruction
system.cpu.op_class::SimdMultAcc                    0      0.00%     71.63% # Class of executed instruction
system.cpu.op_class::SimdShift                      0      0.00%     71.63% # Class of executed instruction
system.cpu.op_class::SimdShiftAcc                   0      0.00%     71.63% # Class of executed instruction
system.cpu.op_class::SimdSqrt                       0      0.00%     71.63% # Class of executed instruction
system.cpu.op_class::SimdFloatAdd                   0      0.00%     71.63% # Class of executed instruction
system.cpu.op_class::SimdFloatAlu                   0      0.00%     71.63% # Class of executed instruction
system.cpu.op_class::SimdFloatCmp                   0      0.00%     71.63% # Class of executed instruction
system.cpu.op_class::SimdFloatCvt                   0      0.00%     71.63% # Class of executed instruction
system.cpu.op_class::SimdFloatDiv                   0      0.00%     71.63% # Class of executed instruction
system.cpu.op_class::SimdFloatMisc                  0      0.00%     71.63% # Class of executed instruction
system.cpu.op_class::SimdFloatMult                  0      0.00%     71.63% # Class of executed instruction
system.cpu.op_class::SimdFloatMultAcc               0      0.00%     71.63% # Class of executed instruction
system.cpu.op_class::SimdFloatSqrt                  0      0.00%     71.63% # Class of executed instruction
system.cpu.op_class::MemRead                 16468623     17.99%     89.62% # Class of executed instruction
system.cpu.op_class::MemWrite                 8387532      9.16%     98.78% # Class of executed instruction
system.cpu.op_class::IprAccess                1119783      1.22%    100.00% # Class of executed instruction
system.cpu.op_class::InstPrefetch                   0      0.00%    100.00% # Class of executed instruction
system.cpu.op_class::total                   91556907                       # Class of executed instruction
system.cpu.kern.inst.arm                            0                       # number of arm instructions executed
system.cpu.kern.inst.quiesce                     7048                       # number of quiesce instructions executed
system.cpu.kern.inst.hwrei                     246514                       # number of hwrei instructions executed
system.cpu.kern.ipl_count::0                    84137     39.29%     39.29% # number of times we switched to this ipl
system.cpu.kern.ipl_count::21                     120      0.06%     39.35% # number of times we switched to this ipl
system.cpu.kern.ipl_count::22                    3037      1.42%     40.77% # number of times we switched to this ipl
system.cpu.kern.ipl_count::31                  126842     59.23%    100.00% # number of times we switched to this ipl
system.cpu.kern.ipl_count::total               214136                       # number of times we switched to this ipl
system.cpu.kern.ipl_good::0                     82600     49.06%     49.06% # number of times we switched to this ipl from a different ipl
system.cpu.kern.ipl_good::21                      120      0.07%     49.13% # number of times we switched to this ipl from a different ipl
system.cpu.kern.ipl_good::22                     3037      1.80%     50.94% # number of times we switched to this ipl from a different ipl
system.cpu.kern.ipl_good::31                    82600     49.06%    100.00% # number of times we switched to this ipl from a different ipl
system.cpu.kern.ipl_good::total                168357                       # number of times we switched to this ipl from a different ipl
system.cpu.kern.ipl_ticks::0             2780804740000     90.33%     90.33% # number of cycles we spent at this ipl
system.cpu.kern.ipl_ticks::21               173000000      0.01%     90.34% # number of cycles we spent at this ipl
system.cpu.kern.ipl_ticks::22              2976260000      0.10%     90.43% # number of cycles we spent at this ipl
system.cpu.kern.ipl_ticks::31            294559590000      9.57%    100.00% # number of cycles we spent at this ipl
system.cpu.kern.ipl_ticks::total         3078513590000                       # number of cycles we spent at this ipl
system.cpu.kern.ipl_used::0                  0.981732                       # fraction of swpipl calls that actually changed the ipl
system.cpu.kern.ipl_used::21                        1                       # fraction of swpipl calls that actually changed the ipl
system.cpu.kern.ipl_used::22                        1                       # fraction of swpipl calls that actually changed the ipl
system.cpu.kern.ipl_used::31                 0.651204                       # fraction of swpipl calls that actually changed the ipl
system.cpu.kern.ipl_used::total              0.786215                       # fraction of swpipl calls that actually changed the ipl
system.cpu.kern.syscall::2                          8      2.17%      2.17% # number of syscalls executed
system.cpu.kern.syscall::3                         33      8.94%     11.11% # number of syscalls executed
system.cpu.kern.syscall::4                          7      1.90%     13.01% # number of syscalls executed
system.cpu.kern.syscall::6                         45     12.20%     25.20% # number of syscalls executed
system.cpu.kern.syscall::12                         1      0.27%     25.47% # number of syscalls executed
system.cpu.kern.syscall::15                         1      0.27%     25.75% # number of syscalls executed
system.cpu.kern.syscall::17                        18      4.88%     30.62% # number of syscalls executed
system.cpu.kern.syscall::19                        11      2.98%     33.60% # number of syscalls executed
system.cpu.kern.syscall::20                         6      1.63%     35.23% # number of syscalls executed
system.cpu.kern.syscall::23                         4      1.08%     36.31% # number of syscalls executed
system.cpu.kern.syscall::24                         8      2.17%     38.48% # number of syscalls executed
system.cpu.kern.syscall::33                        12      3.25%     41.73% # number of syscalls executed
system.cpu.kern.syscall::41                         2      0.54%     42.28% # number of syscalls executed
system.cpu.kern.syscall::45                        62     16.80%     59.08% # number of syscalls executed
system.cpu.kern.syscall::47                         8      2.17%     61.25% # number of syscalls executed
system.cpu.kern.syscall::48                        10      2.71%     63.96% # number of syscalls executed
system.cpu.kern.syscall::54                        12      3.25%     67.21% # number of syscalls executed
system.cpu.kern.syscall::58                         2      0.54%     67.75% # number of syscalls executed
system.cpu.kern.syscall::59                         7      1.90%     69.65% # number of syscalls executed
system.cpu.kern.syscall::71                        63     17.07%     86.72% # number of syscalls executed
system.cpu.kern.syscall::73                         5      1.36%     88.08% # number of syscalls executed
system.cpu.kern.syscall::74                        18      4.88%     92.95% # number of syscalls executed
system.cpu.kern.syscall::87                         2      0.54%     93.50% # number of syscalls executed
system.cpu.kern.syscall::90                         3      0.81%     94.31% # number of syscalls executed
system.cpu.kern.syscall::92                         9      2.44%     96.75% # number of syscalls executed
system.cpu.kern.syscall::97                         2      0.54%     97.29% # number of syscalls executed
system.cpu.kern.syscall::98                         2      0.54%     97.83% # number of syscalls executed
system.cpu.kern.syscall::132                        4      1.08%     98.92% # number of syscalls executed
system.cpu.kern.syscall::144                        2      0.54%     99.46% # number of syscalls executed
system.cpu.kern.syscall::147                        2      0.54%    100.00% # number of syscalls executed
system.cpu.kern.syscall::total                    369                       # number of syscalls executed
system.cpu.kern.callpal::cserve                     1      0.00%      0.00% # number of callpals executed
system.cpu.kern.callpal::wrmces                     1      0.00%      0.00% # number of callpals executed
system.cpu.kern.callpal::wrfen                      1      0.00%      0.00% # number of callpals executed
system.cpu.kern.callpal::wrvptptr                   1      0.00%      0.00% # number of callpals executed
system.cpu.kern.callpal::swpctx                  4450      1.99%      2.00% # number of callpals executed
system.cpu.kern.callpal::tbi                       65      0.03%      2.02% # number of callpals executed
system.cpu.kern.callpal::wrent                      7      0.00%      2.03% # number of callpals executed
system.cpu.kern.callpal::swpipl                204334     91.54%     93.57% # number of callpals executed
system.cpu.kern.callpal::rdps                    6888      3.09%     96.66% # number of callpals executed
system.cpu.kern.callpal::wrkgp                      1      0.00%     96.66% # number of callpals executed
system.cpu.kern.callpal::wrusp                      8      0.00%     96.66% # number of callpals executed
system.cpu.kern.callpal::rdusp                     10      0.00%     96.66% # number of callpals executed
system.cpu.kern.callpal::whami                      2      0.00%     96.66% # number of callpals executed
system.cpu.kern.callpal::rti                     6644      2.98%     99.64% # number of callpals executed
system.cpu.kern.callpal::callsys                  562      0.25%     99.89% # number of callpals executed
system.cpu.kern.callpal::imb                      239      0.11%    100.00% # number of callpals executed
system.cpu.kern.callpal::total                 223214                       # number of callpals executed
system.cpu.kern.mode_switch::kernel              7322                       # number of protection mode switches
system.cpu.kern.mode_switch::user                2003                       # number of protection mode switches
system.cpu.kern.mode_switch::idle                2278                       # number of protection mode switches
system.cpu.kern.mode_good::kernel                2051                      
system.cpu.kern.mode_good::user                  2003                      
system.cpu.kern.mode_good::idle                    48                      
system.cpu.kern.mode_switch_good::kernel     0.280115                       # fraction of useful protection mode switches
system.cpu.kern.mode_switch_good::user              1                       # fraction of useful protection mode switches
system.cpu.kern.mode_switch_good::idle       0.021071                       # fraction of useful protection mode switches
system.cpu.kern.mode_switch_good::total      0.353529                       # fraction of useful protection mode switches
system.cpu.kern.mode_ticks::kernel       682230300000     22.16%     22.16% # number of ticks spent at the given mode
system.cpu.kern.mode_ticks::user          34895690000      1.13%     23.29% # number of ticks spent at the given mode
system.cpu.kern.mode_ticks::idle         2361387580000     76.71%    100.00% # number of ticks spent at the given mode
system.cpu.kern.swap_context                     4451                       # number of times the context was actually changed
system.tsunami.ethernet.descDMAReads                0                       # Number of descriptors the device read w/ DMA
system.tsunami.ethernet.descDMAWrites               0                       # Number of descriptors the device wrote w/ DMA
system.tsunami.ethernet.descDmaReadBytes            0                       # number of descriptor bytes read w/ DMA
system.tsunami.ethernet.descDmaWriteBytes            0                       # number of descriptor bytes write w/ DMA
system.tsunami.ethernet.postedSwi                   0                       # number of software interrupts posted to CPU
system.tsunami.ethernet.coalescedSwi              nan                       # average number of Swi's coalesced into each post
system.tsunami.ethernet.totalSwi                    0                       # total number of Swi written to ISR
system.tsunami.ethernet.postedRxIdle                0                       # number of rxIdle interrupts posted to CPU
system.tsunami.ethernet.coalescedRxIdle           nan                       # average number of RxIdle's coalesced into each post
system.tsunami.ethernet.totalRxIdle                 0                       # total number of RxIdle written to ISR
system.tsunami.ethernet.postedRxOk                  0                       # number of RxOk interrupts posted to CPU
system.tsunami.ethernet.coalescedRxOk             nan                       # average number of RxOk's coalesced into each post
system.tsunami.ethernet.totalRxOk                   0                       # total number of RxOk written to ISR
system.tsunami.ethernet.postedRxDesc                0                       # number of RxDesc interrupts posted to CPU
system.tsunami.ethernet.coalescedRxDesc           nan                       # average number of RxDesc's coalesced into each post
system.tsunami.ethernet.totalRxDesc                 0                       # total number of RxDesc written to ISR
system.tsunami.ethernet.postedTxOk                  0                       # number of TxOk interrupts posted to CPU
system.tsunami.ethernet.coalescedTxOk             nan                       # average number of TxOk's coalesced into each post
system.tsunami.ethernet.totalTxOk                   0                       # total number of TxOk written to ISR
system.tsunami.ethernet.postedTxIdle                0                       # number of TxIdle interrupts posted to CPU
system.tsunami.ethernet.coalescedTxIdle           nan                       # average number of TxIdle's coalesced into each post
system.tsunami.ethernet.totalTxIdle                 0                       # total number of TxIdle written to ISR
system.tsunami.ethernet.postedTxDesc                0                       # number of TxDesc interrupts posted to CPU
system.tsunami.ethernet.coalescedTxDesc           nan                       # average number of TxDesc's coalesced into each post
system.tsunami.ethernet.totalTxDesc                 0                       # total number of TxDesc written to ISR
system.tsunami.ethernet.postedRxOrn                 0                       # number of RxOrn posted to CPU
system.tsunami.ethernet.coalescedRxOrn            nan                       # average number of RxOrn's coalesced into each post
system.tsunami.ethernet.totalRxOrn                  0                       # total number of RxOrn written to ISR
system.tsunami.ethernet.coalescedTotal            nan                       # average number of interrupts coalesced into each post
system.tsunami.ethernet.postedInterrupts            0                       # number of posts to CPU
system.tsunami.ethernet.droppedPackets              0                       # number of packets dropped
system.iobus.trans_dist::ReadReq                 7481                       # Transaction distribution
system.iobus.trans_dist::ReadResp                7481                       # Transaction distribution
system.iobus.trans_dist::WriteReq               55141                       # Transaction distribution
system.iobus.trans_dist::WriteResp              10885                       # Transaction distribution
system.iobus.trans_dist::WriteInvalidateResp        44256                       # Transaction distribution
system.iobus.pkt_count_system.bridge.master::system.tsunami.cchip.pio         6724                       # Packet count per connected master and slave (bytes)
system.iobus.pkt_count_system.bridge.master::system.tsunami.pchip.pio          296                       # Packet count per connected master and slave (bytes)
system.iobus.pkt_count_system.bridge.master::system.tsunami.fake_sm_chip.pio           20                       # Packet count per connected master and slave (bytes)
system.iobus.pkt_count_system.bridge.master::system.tsunami.fake_uart4.pio           20                       # Packet count per connected master and slave (bytes)
system.iobus.pkt_count_system.bridge.master::system.tsunami.fake_ata0.pio           22                       # Packet count per connected master and slave (bytes)
system.iobus.pkt_count_system.bridge.master::system.tsunami.fake_ata1.pio           22                       # Packet count per connected master and slave (bytes)
system.iobus.pkt_count_system.bridge.master::system.tsunami.io.pio          256                       # Packet count per connected master and slave (bytes)
system.iobus.pkt_count_system.bridge.master::system.tsunami.uart.pio        20504                       # Packet count per connected master and slave (bytes)
system.iobus.pkt_count_system.bridge.master::system.tsunami.backdoor.pio         1904                       # Packet count per connected master and slave (bytes)
system.iobus.pkt_count_system.bridge.master::system.tsunami.ide.pio         5904                       # Packet count per connected master and slave (bytes)
system.iobus.pkt_count_system.bridge.master::system.tsunami.ide-pciconf          284                       # Packet count per connected master and slave (bytes)
system.iobus.pkt_count_system.bridge.master::system.tsunami.ethernet.pio          100                       # Packet count per connected master and slave (bytes)
system.iobus.pkt_count_system.bridge.master::system.tsunami.ethernet-pciconf          196                       # Packet count per connected master and slave (bytes)
system.iobus.pkt_count_system.bridge.master::system.tsunami.pciconfig.pio           60                       # Packet count per connected master and slave (bytes)
system.iobus.pkt_count_system.bridge.master::total        36312                       # Packet count per connected master and slave (bytes)
system.iobus.pkt_count_system.tsunami.ide.dma::system.iocache.cpu_side        88932                       # Packet count per connected master and slave (bytes)
system.iobus.pkt_count_system.tsunami.ide.dma::total        88932                       # Packet count per connected master and slave (bytes)
system.iobus.pkt_count::total                  125244                       # Packet count per connected master and slave (bytes)
system.iobus.pkt_size_system.bridge.master::system.tsunami.cchip.pio        26896                       # Cumulative packet size per connected master and slave (bytes)
system.iobus.pkt_size_system.bridge.master::system.tsunami.pchip.pio         1184                       # Cumulative packet size per connected master and slave (bytes)
system.iobus.pkt_size_system.bridge.master::system.tsunami.fake_sm_chip.pio           10                       # Cumulative packet size per connected master and slave (bytes)
system.iobus.pkt_size_system.bridge.master::system.tsunami.fake_uart4.pio           10                       # Cumulative packet size per connected master and slave (bytes)
system.iobus.pkt_size_system.bridge.master::system.tsunami.fake_ata0.pio           11                       # Cumulative packet size per connected master and slave (bytes)
system.iobus.pkt_size_system.bridge.master::system.tsunami.fake_ata1.pio           11                       # Cumulative packet size per connected master and slave (bytes)
system.iobus.pkt_size_system.bridge.master::system.tsunami.io.pio          268                       # Cumulative packet size per connected master and slave (bytes)
system.iobus.pkt_size_system.bridge.master::system.tsunami.uart.pio        10252                       # Cumulative packet size per connected master and slave (bytes)
system.iobus.pkt_size_system.bridge.master::system.tsunami.backdoor.pio         7596                       # Cumulative packet size per connected master and slave (bytes)
system.iobus.pkt_size_system.bridge.master::system.tsunami.ide.pio         3746                       # Cumulative packet size per connected master and slave (bytes)
system.iobus.pkt_size_system.bridge.master::system.tsunami.ide-pciconf          400                       # Cumulative packet size per connected master and slave (bytes)
system.iobus.pkt_size_system.bridge.master::system.tsunami.ethernet.pio          200                       # Cumulative packet size per connected master and slave (bytes)
system.iobus.pkt_size_system.bridge.master::system.tsunami.ethernet-pciconf          311                       # Cumulative packet size per connected master and slave (bytes)
system.iobus.pkt_size_system.bridge.master::system.tsunami.pciconfig.pio          120                       # Cumulative packet size per connected master and slave (bytes)
system.iobus.pkt_size_system.bridge.master::total        51015                       # Cumulative packet size per connected master and slave (bytes)
system.iobus.pkt_size_system.tsunami.ide.dma::system.iocache.cpu_side      2837648                       # Cumulative packet size per connected master and slave (bytes)
system.iobus.pkt_size_system.tsunami.ide.dma::total      2837648                       # Cumulative packet size per connected master and slave (bytes)
system.iobus.pkt_size::total                  2888663                       # Cumulative packet size per connected master and slave (bytes)
system.cpu.icache.tags.replacements           1359275                       # number of replacements
system.cpu.icache.tags.tagsinuse           506.474559                       # Cycle average of tags in use
system.cpu.icache.tags.total_refs            90040915                       # Total number of references to valid blocks.
system.cpu.icache.tags.sampled_refs           1359275                       # Sample count of references to valid blocks.
system.cpu.icache.tags.avg_refs             66.241868                       # Average number of references to valid blocks.
system.cpu.icache.tags.warmup_cycle      159583890000                       # Cycle when the warmup percentage was hit.
system.cpu.icache.tags.occ_blocks::cpu.inst   506.474559                       # Average occupied blocks per requestor
system.cpu.icache.tags.occ_percent::cpu.inst     0.989208                       # Average percentage of cache occupancy
system.cpu.icache.tags.occ_percent::total     0.989208                       # Average percentage of cache occupancy
system.cpu.icache.tags.occ_task_id_blocks::1024          511                       # Occupied blocks per task id
system.cpu.icache.tags.age_task_id_blocks_1024::0           31                       # Occupied blocks per task id
system.cpu.icache.tags.age_task_id_blocks_1024::1           44                       # Occupied blocks per task id
system.cpu.icache.tags.age_task_id_blocks_1024::2          105                       # Occupied blocks per task id
system.cpu.icache.tags.age_task_id_blocks_1024::3          331                       # Occupied blocks per task id
system.cpu.icache.tags.occ_task_id_percent::1024     0.998047                       # Percentage of cache occupancy per task id
system.cpu.icache.tags.tag_accesses         184473822                       # Number of tag accesses
system.cpu.icache.tags.data_accesses        184473822                       # Number of data accesses
system.cpu.icache.ReadReq_hits::cpu.inst     90196899                       # number of ReadReq hits
system.cpu.icache.ReadReq_hits::total        90196899                       # number of ReadReq hits
system.cpu.icache.demand_hits::cpu.inst      90196899                       # number of demand (read+write) hits
system.cpu.icache.demand_hits::total         90196899                       # number of demand (read+write) hits
system.cpu.icache.overall_hits::cpu.inst     90196899                       # number of overall hits
system.cpu.icache.overall_hits::total        90196899                       # number of overall hits
system.cpu.icache.ReadReq_misses::cpu.inst      1360008                       # number of ReadReq misses
system.cpu.icache.ReadReq_misses::total       1360008                       # number of ReadReq misses
system.cpu.icache.demand_misses::cpu.inst      1360008                       # number of demand (read+write) misses
system.cpu.icache.demand_misses::total        1360008                       # number of demand (read+write) misses
system.cpu.icache.overall_misses::cpu.inst      1360008                       # number of overall misses
system.cpu.icache.overall_misses::total       1360008                       # number of overall misses
system.cpu.icache.ReadReq_accesses::cpu.inst     91556907                       # number of ReadReq accesses(hits+misses)
system.cpu.icache.ReadReq_accesses::total     91556907                       # number of ReadReq accesses(hits+misses)
system.cpu.icache.demand_accesses::cpu.inst     91556907                       # number of demand (read+write) accesses
system.cpu.icache.demand_accesses::total     91556907                       # number of demand (read+write) accesses
system.cpu.icache.overall_accesses::cpu.inst     91556907                       # number of overall (read+write) accesses
system.cpu.icache.overall_accesses::total     91556907                       # number of overall (read+write) accesses
system.cpu.icache.ReadReq_miss_rate::cpu.inst     0.014854                       # miss rate for ReadReq accesses
system.cpu.icache.ReadReq_miss_rate::total     0.014854                       # miss rate for ReadReq accesses
system.cpu.icache.demand_miss_rate::cpu.inst     0.014854                       # miss rate for demand accesses
system.cpu.icache.demand_miss_rate::total     0.014854                       # miss rate for demand accesses
system.cpu.icache.overall_miss_rate::cpu.inst     0.014854                       # miss rate for overall accesses
system.cpu.icache.overall_miss_rate::total     0.014854                       # miss rate for overall accesses
system.cpu.icache.blocked_cycles::no_mshrs            0                       # number of cycles access was blocked
system.cpu.icache.blocked_cycles::no_targets            0                       # number of cycles access was blocked
system.cpu.icache.blocked::no_mshrs                 0                       # number of cycles access was blocked
system.cpu.icache.blocked::no_targets               0                       # number of cycles access was blocked
system.cpu.icache.avg_blocked_cycles::no_mshrs          nan                       # average number of cycles each access was blocked
system.cpu.icache.avg_blocked_cycles::no_targets          nan                       # average number of cycles each access was blocked
system.cpu.icache.fast_writes                       0                       # number of fast writes performed
system.cpu.icache.cache_copies                      0                       # number of cache copies performed
system.cpu.icache.no_allocate_misses                0                       # Number of misses that were no-allocate
system.cpu.dcache.tags.replacements           2864471                       # number of replacements
system.cpu.dcache.tags.tagsinuse          1023.907696                       # Cycle average of tags in use
system.cpu.dcache.tags.total_refs            21452649                       # Total number of references to valid blocks.
system.cpu.dcache.tags.sampled_refs           2864471                       # Sample count of references to valid blocks.
system.cpu.dcache.tags.avg_refs              7.489218                       # Average number of references to valid blocks.
system.cpu.dcache.tags.warmup_cycle         348570000                       # Cycle when the warmup percentage was hit.
system.cpu.dcache.tags.occ_blocks::cpu.data  1023.907696                       # Average occupied blocks per requestor
system.cpu.dcache.tags.occ_percent::cpu.data     0.999910                       # Average percentage of cache occupancy
system.cpu.dcache.tags.occ_percent::total     0.999910                       # Average percentage of cache occupancy
system.cpu.dcache.tags.occ_task_id_blocks::1024         1024                       # Occupied blocks per task id
system.cpu.dcache.tags.age_task_id_blocks_1024::0           14                       # Occupied blocks per task id
system.cpu.dcache.tags.age_task_id_blocks_1024::1          388                       # Occupied blocks per task id
system.cpu.dcache.tags.age_task_id_blocks_1024::2          576                       # Occupied blocks per task id
system.cpu.dcache.tags.age_task_id_blocks_1024::3           46                       # Occupied blocks per task id
system.cpu.dcache.tags.occ_task_id_percent::1024            1                       # Percentage of cache occupancy per task id
system.cpu.dcache.tags.tag_accesses          51557766                       # Number of tag accesses
system.cpu.dcache.tags.data_accesses         51557766                       # Number of data accesses
system.cpu.dcache.ReadReq_hits::cpu.data     13279878                       # number of ReadReq hits
system.cpu.dcache.ReadReq_hits::total        13279878                       # number of ReadReq hits
system.cpu.dcache.WriteReq_hits::cpu.data      7719698                       # number of WriteReq hits
system.cpu.dcache.WriteReq_hits::total        7719698                       # number of WriteReq hits
system.cpu.dcache.LoadLockedReq_hits::cpu.data       230254                       # number of LoadLockedReq hits
system.cpu.dcache.LoadLockedReq_hits::total       230254                       # number of LoadLockedReq hits
system.cpu.dcache.StoreCondReq_hits::cpu.data       250543                       # number of StoreCondReq hits
system.cpu.dcache.StoreCondReq_hits::total       250543                       # number of StoreCondReq hits
system.cpu.dcache.demand_hits::cpu.data      20999576                       # number of demand (read+write) hits
system.cpu.dcache.demand_hits::total         20999576                       # number of demand (read+write) hits
system.cpu.dcache.overall_hits::cpu.data     20999576                       # number of overall hits
system.cpu.dcache.overall_hits::total        20999576                       # number of overall hits
system.cpu.dcache.ReadReq_misses::cpu.data      2521373                       # number of ReadReq misses
system.cpu.dcache.ReadReq_misses::total       2521373                       # number of ReadReq misses
system.cpu.dcache.WriteReq_misses::cpu.data       322885                       # number of WriteReq misses
system.cpu.dcache.WriteReq_misses::total       322885                       # number of WriteReq misses
system.cpu.dcache.LoadLockedReq_misses::cpu.data        21436                       # number of LoadLockedReq misses
system.cpu.dcache.LoadLockedReq_misses::total        21436                       # number of LoadLockedReq misses
system.cpu.dcache.demand_misses::cpu.data      2844258                       # number of demand (read+write) misses
system.cpu.dcache.demand_misses::total        2844258                       # number of demand (read+write) misses
system.cpu.dcache.overall_misses::cpu.data      2844258                       # number of overall misses
[...]
system.cpu.kern.mode_good::idle                     0                      
system.cpu.kern.mode_switch_good::kernel     0.593548                       # fraction of useful protection mode switches
system.cpu.kern.mode_switch_good::user              1                       # fraction of useful protection mode switches
system.cpu.kern.mode_switch_good::idle            nan                       # fraction of useful protection mode switches
system.cpu.kern.mode_switch_good::total      0.744939                       # fraction of useful protection mode switches
system.cpu.kern.mode_ticks::kernel         5514150000     71.60%     71.60% # number of ticks spent at the given mode
system.cpu.kern.mode_ticks::user           2187400000     28.40%    100.00% # number of ticks spent at the given mode
system.cpu.kern.mode_ticks::idle                    0      0.00%    100.00% # number of ticks spent at the given mode
system.cpu.kern.swap_context                      118                       # number of times the context was actually changed
system.tsunami.ethernet.descDMAReads                0                       # Number of descriptors the device read w/ DMA
system.tsunami.ethernet.descDMAWrites               0                       # Number of descriptors the device wrote w/ DMA
system.tsunami.ethernet.descDmaReadBytes            0                       # number of descriptor bytes read w/ DMA
system.tsunami.ethernet.descDmaWriteBytes            0                       # number of descriptor bytes write w/ DMA
system.tsunami.ethernet.postedSwi                   0                       # number of software interrupts posted to CPU
system.tsunami.ethernet.coalescedSwi              nan                       # average number of Swi's coalesced into each post
system.tsunami.ethernet.totalSwi                    0                       # total number of Swi written to ISR
system.tsunami.ethernet.postedRxIdle                0                       # number of rxIdle interrupts posted to CPU
system.tsunami.ethernet.coalescedRxIdle           nan                       # average number of RxIdle's coalesced into each post
system.tsunami.ethernet.totalRxIdle                 0                       # total number of RxIdle written to ISR
system.tsunami.ethernet.postedRxOk                  0                       # number of RxOk interrupts posted to CPU
system.tsunami.ethernet.coalescedRxOk             nan                       # average number of RxOk's coalesced into each post
system.tsunami.ethernet.totalRxOk                   0                       # total number of RxOk written to ISR
system.tsunami.ethernet.postedRxDesc                0                       # number of RxDesc interrupts posted to CPU
system.tsunami.ethernet.coalescedRxDesc           nan                       # average number of RxDesc's coalesced into each post
system.tsunami.ethernet.totalRxDesc                 0                       # total number of RxDesc written to ISR
system.tsunami.ethernet.postedTxOk                  0                       # number of TxOk interrupts posted to CPU
system.tsunami.ethernet.coalescedTxOk             nan                       # average number of TxOk's coalesced into each post
system.tsunami.ethernet.totalTxOk                   0                       # total number of TxOk written to ISR
system.tsunami.ethernet.postedTxIdle                0                       # number of TxIdle interrupts posted to CPU
system.tsunami.ethernet.coalescedTxIdle           nan                       # average number of TxIdle's coalesced into each post
system.tsunami.ethernet.totalTxIdle                 0                       # total number of TxIdle written to ISR
system.tsunami.ethernet.postedTxDesc                0                       # number of TxDesc interrupts posted to CPU
system.tsunami.ethernet.coalescedTxDesc           nan                       # average number of TxDesc's coalesced into each post
system.tsunami.ethernet.totalTxDesc                 0                       # total number of TxDesc written to ISR
system.tsunami.ethernet.postedRxOrn                 0                       # number of RxOrn posted to CPU
system.tsunami.ethernet.coalescedRxOrn            nan                       # average number of RxOrn's coalesced into each post
system.tsunami.ethernet.totalRxOrn                  0                       # total number of RxOrn written to ISR
system.tsunami.ethernet.coalescedTotal            nan                       # average number of interrupts coalesced into each post
system.tsunami.ethernet.postedInterrupts            0                       # number of posts to CPU
system.tsunami.ethernet.droppedPackets              0                       # number of packets dropped
system.iobus.trans_dist::WriteReq                   8                       # Transaction distribution
system.iobus.trans_dist::WriteResp                  8                       # Transaction distribution
system.iobus.pkt_count_system.bridge.master::system.tsunami.cchip.pio           16                       # Packet count per connected master and slave (bytes)
system.iobus.pkt_count_system.bridge.master::total           16                       # Packet count per connected master and slave (bytes)
system.iobus.pkt_count::total                      16                       # Packet count per connected master and slave (bytes)
system.iobus.pkt_size_system.bridge.master::system.tsunami.cchip.pio           64                       # Cumulative packet size per connected master and slave (bytes)
system.iobus.pkt_size_system.bridge.master::total           64                       # Cumulative packet size per connected master and slave (bytes)
system.iobus.pkt_size::total                       64                       # Cumulative packet size per connected master and slave (bytes)
system.cpu.icache.tags.replacements              8593                       # number of replacements
system.cpu.icache.tags.tagsinuse           511.944544                       # Cycle average of tags in use
system.cpu.icache.tags.total_refs              913792                       # Total number of references to valid blocks.
system.cpu.icache.tags.sampled_refs              9105                       # Sample count of references to valid blocks.
system.cpu.icache.tags.avg_refs            100.361560                       # Average number of references to valid blocks.
system.cpu.icache.tags.warmup_cycle                 0                       # Cycle when the warmup percentage was hit.
system.cpu.icache.tags.occ_blocks::cpu.inst   511.944544                       # Average occupied blocks per requestor
system.cpu.icache.tags.occ_percent::cpu.inst     0.999892                       # Average percentage of cache occupancy
system.cpu.icache.tags.occ_percent::total     0.999892                       # Average percentage of cache occupancy
system.cpu.icache.tags.occ_task_id_blocks::1024          512                       # Occupied blocks per task id
system.cpu.icache.tags.age_task_id_blocks_1024::0           31                       # Occupied blocks per task id
system.cpu.icache.tags.age_task_id_blocks_1024::1           42                       # Occupied blocks per task id
system.cpu.icache.tags.age_task_id_blocks_1024::2          131                       # Occupied blocks per task id
system.cpu.icache.tags.age_task_id_blocks_1024::3          308                       # Occupied blocks per task id
system.cpu.icache.tags.occ_task_id_percent::1024            1                       # Percentage of cache occupancy per task id
system.cpu.icache.tags.tag_accesses           1547878                       # Number of tag accesses
system.cpu.icache.tags.data_accesses          1547878                       # Number of data accesses
system.cpu.icache.ReadReq_hits::cpu.inst       761045                       # number of ReadReq hits
system.cpu.icache.ReadReq_hits::total          761045                       # number of ReadReq hits
system.cpu.icache.demand_hits::cpu.inst        761045                       # number of demand (read+write) hits
system.cpu.icache.demand_hits::total           761045                       # number of demand (read+write) hits
system.cpu.icache.overall_hits::cpu.inst       761045                       # number of overall hits
system.cpu.icache.overall_hits::total          761045                       # number of overall hits
system.cpu.icache.ReadReq_misses::cpu.inst         8596                       # number of ReadReq misses
system.cpu.icache.ReadReq_misses::total          8596                       # number of ReadReq misses
system.cpu.icache.demand_misses::cpu.inst         8596                       # number of demand (read+write) misses
system.cpu.icache.demand_misses::total           8596                       # number of demand (read+write) misses
system.cpu.icache.overall_misses::cpu.inst         8596                       # number of overall misses
system.cpu.icache.overall_misses::total          8596                       # number of overall misses
system.cpu.icache.ReadReq_accesses::cpu.inst       769641                       # number of ReadReq accesses(hits+misses)
system.cpu.icache.ReadReq_accesses::total       769641                       # number of ReadReq accesses(hits+misses)
system.cpu.icache.demand_accesses::cpu.inst       769641                       # number of demand (read+write) accesses
system.cpu.icache.demand_accesses::total       769641                       # number of demand (read+write) accesses
system.cpu.icache.overall_accesses::cpu.inst       769641                       # number of overall (read+write) accesses
system.cpu.icache.overall_accesses::total       769641                       # number of overall (read+write) accesses
system.cpu.icache.ReadReq_miss_rate::cpu.inst     0.011169                       # miss rate for ReadReq accesses
system.cpu.icache.ReadReq_miss_rate::total     0.011169                       # miss rate for ReadReq accesses
system.cpu.icache.demand_miss_rate::cpu.inst     0.011169                       # miss rate for demand accesses
system.cpu.icache.demand_miss_rate::total     0.011169                       # miss rate for demand accesses
system.cpu.icache.overall_miss_rate::cpu.inst     0.011169                       # miss rate for overall accesses
system.cpu.icache.overall_miss_rate::total     0.011169                       # miss rate for overall accesses
system.cpu.icache.blocked_cycles::no_mshrs            0                       # number of cycles access was blocked
system.cpu.icache.blocked_cycles::no_targets            0                       # number of cycles access was blocked
system.cpu.icache.blocked::no_mshrs                 0                       # number of cycles access was blocked
system.cpu.icache.blocked::no_targets               0                       # number of cycles access was blocked
system.cpu.icache.avg_blocked_cycles::no_mshrs          nan                       # average number of cycles each access was blocked
system.cpu.icache.avg_blocked_cycles::no_targets          nan                       # average number of cycles each access was blocked
system.cpu.icache.fast_writes                       0                       # number of fast writes performed
system.cpu.icache.cache_copies                      0                       # number of cache copies performed
system.cpu.icache.no_allocate_misses                0                       # Number of misses that were no-allocate
system.cpu.dcache.tags.replacements             16974                       # number of replacements
system.cpu.dcache.tags.tagsinuse                 1024                       # Cycle average of tags in use
system.cpu.dcache.tags.total_refs              287978                       # Total number of references to valid blocks.
system.cpu.dcache.tags.sampled_refs             17998                       # Sample count of references to valid blocks.
system.cpu.dcache.tags.avg_refs             16.000556                       # Average number of references to valid blocks.
system.cpu.dcache.tags.warmup_cycle                 0                       # Cycle when the warmup percentage was hit.
system.cpu.dcache.tags.occ_blocks::cpu.data         1024                       # Average occupied blocks per requestor
system.cpu.dcache.tags.occ_percent::cpu.data            1                       # Average percentage of cache occupancy
system.cpu.dcache.tags.occ_percent::total            1                       # Average percentage of cache occupancy
system.cpu.dcache.tags.occ_task_id_blocks::1024         1024                       # Occupied blocks per task id
system.cpu.dcache.tags.age_task_id_blocks_1024::0           12                       # Occupied blocks per task id
system.cpu.dcache.tags.age_task_id_blocks_1024::1          376                       # Occupied blocks per task id
system.cpu.dcache.tags.age_task_id_blocks_1024::2          587                       # Occupied blocks per task id
system.cpu.dcache.tags.age_task_id_blocks_1024::3           47                       # Occupied blocks per task id
system.cpu.dcache.tags.age_task_id_blocks_1024::4            2                       # Occupied blocks per task id
system.cpu.dcache.tags.occ_task_id_percent::1024            1                       # Percentage of cache occupancy per task id
system.cpu.dcache.tags.tag_accesses            571480                       # Number of tag accesses
system.cpu.dcache.tags.data_accesses           571480                       # Number of data accesses
system.cpu.dcache.ReadReq_hits::cpu.data       134137                       # number of ReadReq hits
system.cpu.dcache.ReadReq_hits::total          134137                       # number of ReadReq hits
system.cpu.dcache.WriteReq_hits::cpu.data       121408                       # number of WriteReq hits
system.cpu.dcache.WriteReq_hits::total         121408                       # number of WriteReq hits
system.cpu.dcache.LoadLockedReq_hits::cpu.data         2262                       # number of LoadLockedReq hits
system.cpu.dcache.LoadLockedReq_hits::total         2262                       # number of LoadLockedReq hits
system.cpu.dcache.StoreCondReq_hits::cpu.data         2471                       # number of StoreCondReq hits
system.cpu.dcache.StoreCondReq_hits::total         2471                       # number of StoreCondReq hits
system.cpu.dcache.demand_hits::cpu.data        255545                       # number of demand (read+write) hits
system.cpu.dcache.demand_hits::total           255545                       # number of demand (read+write) hits
system.cpu.dcache.overall_hits::cpu.data       255545                       # number of overall hits
system.cpu.dcache.overall_hits::total          255545                       # number of overall hits
system.cpu.dcache.ReadReq_misses::cpu.data         7791                       # number of ReadReq misses
system.cpu.dcache.ReadReq_misses::total          7791                       # number of ReadReq misses
system.cpu.dcache.WriteReq_misses::cpu.data         8968                       # number of WriteReq misses
system.cpu.dcache.WriteReq_misses::total         8968                       # number of WriteReq misses
system.cpu.dcache.LoadLockedReq_misses::cpu.data          216                       # number of LoadLockedReq misses
system.cpu.dcache.LoadLockedReq_misses::total          216                       # number of LoadLockedReq misses
system.cpu.dcache.demand_misses::cpu.data        16759                       # number of demand (read+write) misses
system.cpu.dcache.demand_misses::total          16759                       # number of demand (read+write) misses
system.cpu.dcache.overall_misses::cpu.data        16759                       # number of overall misses
system.cpu.dcache.overall_misses::total         16759                       # number of overall misses
system.cpu.dcache.ReadReq_accesses::cpu.data       141928                       # number of ReadReq accesses(hits+misses)
system.cpu.dcache.ReadReq_accesses::total       141928                       # number of ReadReq accesses(hits+misses)
system.cpu.dcache.WriteReq_accesses::cpu.data       130376                       # number of WriteReq accesses(hits+misses)
system.cpu.dcache.WriteReq_accesses::total       130376                       # number of WriteReq accesses(hits+misses)
system.cpu.dcache.LoadLockedReq_accesses::cpu.data         2478                       # number of LoadLockedReq accesses(hits+misses)
system.cpu.dcache.LoadLockedReq_accesses::total         2478                       # number of LoadLockedReq accesses(hits+misses)
system.cpu.dcache.StoreCondReq_accesses::cpu.data         2471                       # number of StoreCondReq accesses(hits+misses)
system.cpu.dcache.StoreCondReq_accesses::total         2471                       # number of StoreCondReq accesses(hits+misses)
system.cpu.dcache.demand_accesses::cpu.data       272304                       # number of demand (read+write) accesses
system.cpu.dcache.demand_accesses::total       272304                       # number of demand (read+write) accesses
system.cpu.dcache.overall_accesses::cpu.data       272304                       # number of overall (read+write) accesses
system.cpu.dcache.overall_accesses::total       272304                       # number of overall (read+write) accesses
system.cpu.dcache.ReadReq_miss_rate::cpu.data     0.054894                       # miss rate for ReadReq accesses
system.cpu.dcache.ReadReq_miss_rate::total     0.054894                       # miss rate for ReadReq accesses
system.cpu.dcache.WriteReq_miss_rate::cpu.data     0.068786                       # miss rate for WriteReq accesses
system.cpu.dcache.WriteReq_miss_rate::total     0.068786                       # miss rate for WriteReq accesses
system.cpu.dcache.LoadLockedReq_miss_rate::cpu.data     0.087167                       # miss rate for LoadLockedReq accesses
system.cpu.dcache.LoadLockedReq_miss_rate::total     0.087167                       # miss rate for LoadLockedReq accesses
system.cpu.dcache.demand_miss_rate::cpu.data     0.061545                       # miss rate for demand accesses
system.cpu.dcache.demand_miss_rate::total     0.061545                       # miss rate for demand accesses
system.cpu.dcache.overall_miss_rate::cpu.data     0.061545                       # miss rate for overall accesses
system.cpu.dcache.overall_miss_rate::total     0.061545                       # miss rate for overall accesses
system.cpu.dcache.blocked_cycles::no_mshrs            0                       # number of cycles access was blocked
system.cpu.dcache.blocked_cycles::no_targets            0                       # number of cycles access was blocked
system.cpu.dcache.blocked::no_mshrs                 0                       # number of cycles access was blocked
system.cpu.dcache.blocked::no_targets               0                       # number of cycles access was blocked
system.cpu.dcache.avg_blocked_cycles::no_mshrs          nan                       # average number of cycles each access was blocked
system.cpu.dcache.avg_blocked_cycles::no_targets          nan                       # average number of cycles each access was blocked
system.cpu.dcache.fast_writes                       0                       # number of fast writes performed
system.cpu.dcache.cache_copies                      0                       # number of cache copies performed
system.cpu.dcache.writebacks::writebacks        10416                       # number of writebacks
system.cpu.dcache.writebacks::total             10416                       # number of writebacks
system.cpu.dcache.no_allocate_misses                0                       # Number of misses that were no-allocate

---------- End Simulation Statistics   ----------
