
---------- Begin Simulation Statistics ----------
sim_seconds                                  2.642018                       # Number of seconds simulated
sim_ticks                                2642017697000                       # Number of ticks simulated
final_tick                               2642017697000                       # Number of ticks from beginning of simulation (restored from checkpoints and never reset)
sim_freq                                 1000000000000                       # Frequency of simulated ticks
host_inst_rate                                1374939                       # Simulator instruction rate (inst/s)
host_op_rate                                  1374939                       # Simulator op (including micro ops) rate (op/s)
host_tick_rate                            40297073823                       # Simulator tick rate (ticks/s)
host_mem_usage                                 453100                       # Number of bytes of host memory used
host_seconds                                    65.56                       # Real time elapsed on the host
sim_insts                                    90145783                       # Number of instructions simulated
sim_ops                                      90145783                       # Number of ops (including micro ops) simulated
system.voltage_domain.voltage                       1                       # Voltage in Volts
system.clk_domain.clock                          1000                       # Clock period in ticks
system.mem_ctrls.bytes_read::cpu.inst        81763520                       # Number of bytes read from this memory
system.mem_ctrls.bytes_read::cpu.data       184436224                       # Number of bytes read from this memory
system.mem_ctrls.bytes_read::tsunami.ide         4672                       # Number of bytes read from this memory
system.mem_ctrls.bytes_read::total          266204416                       # Number of bytes read from this memory
system.mem_ctrls.bytes_inst_read::cpu.inst     81763520                       # Number of instructions bytes read from this memory
system.mem_ctrls.bytes_inst_read::total      81763520                       # Number of instructions bytes read from this memory
system.mem_ctrls.bytes_written::writebacks     30369728                       # Number of bytes written to this memory
system.mem_ctrls.bytes_written::tsunami.ide      2832384                       # Number of bytes written to this memory
system.mem_ctrls.bytes_written::total        33202112                       # Number of bytes written to this memory
system.mem_ctrls.num_reads::cpu.inst          1277555                       # Number of read requests responded to by this memory
system.mem_ctrls.num_reads::cpu.data          2881816                       # Number of read requests responded to by this memory
system.mem_ctrls.num_reads::tsunami.ide            73                       # Number of read requests responded to by this memory
system.mem_ctrls.num_reads::total             4159444                       # Number of read requests responded to by this memory
system.mem_ctrls.num_writes::writebacks        474527                       # Number of write requests responded to by this memory
system.mem_ctrls.num_writes::tsunami.ide        44256                       # Number of write requests responded to by this memory
system.mem_ctrls.num_writes::total             518783                       # Number of write requests responded to by this memory
system.mem_ctrls.bw_read::cpu.inst           30947378                       # Total read bandwidth from this memory (bytes/s)
system.mem_ctrls.bw_read::cpu.data           69808853                       # Total read bandwidth from this memory (bytes/s)
system.mem_ctrls.bw_read::tsunami.ide            1768                       # Total read bandwidth from this memory (bytes/s)
system.mem_ctrls.bw_read::total             100757999                       # Total read bandwidth from this memory (bytes/s)
system.mem_ctrls.bw_inst_read::cpu.inst      30947378                       # Instruction read bandwidth from this memory (bytes/s)
system.mem_ctrls.bw_inst_read::total         30947378                       # Instruction read bandwidth from this memory (bytes/s)
system.mem_ctrls.bw_write::writebacks        11494900                       # Write bandwidth from this memory (bytes/s)
system.mem_ctrls.bw_write::tsunami.ide        1072053                       # Write bandwidth from this memory (bytes/s)
system.mem_ctrls.bw_write::total             12566953                       # Write bandwidth from this memory (bytes/s)
system.mem_ctrls.bw_total::writebacks        11494900                       # Total bandwidth to/from this memory (bytes/s)
system.mem_ctrls.bw_total::cpu.inst          30947378                       # Total bandwidth to/from this memory (bytes/s)
system.mem_ctrls.bw_total::cpu.data          69808853                       # Total bandwidth to/from this memory (bytes/s)
system.mem_ctrls.bw_total::tsunami.ide        1073822                       # Total bandwidth to/from this memory (bytes/s)
system.mem_ctrls.bw_total::total            113324952                       # Total bandwidth to/from this memory (bytes/s)
system.mem_ctrls.readReqs                     4159444                       # Number of read requests accepted
system.mem_ctrls.writeReqs                     518783                       # Number of write requests accepted
system.mem_ctrls.readBursts                   4159444                       # Number of DRAM read bursts, including those serviced by the write queue
system.mem_ctrls.writeBursts                   518783                       # Number of DRAM write bursts, including those merged in the write queue
system.mem_ctrls.bytesReadDRAM              263975616                       # Total number of bytes read from DRAM
system.mem_ctrls.bytesReadWrQ                 2228800                       # Total number of bytes read from write queue
system.mem_ctrls.bytesWritten                32825920                       # Total number of bytes written to DRAM
system.mem_ctrls.bytesReadSys               266204416                       # Total read bytes from the system interface side
system.mem_ctrls.bytesWrittenSys             33202112                       # Total written bytes from the system interface side
system.mem_ctrls.servicedByWrQ                  34825                       # Number of DRAM read bursts serviced by the write queue
system.mem_ctrls.mergedWrBursts                  5853                       # Number of DRAM write bursts merged with an existing one
system.mem_ctrls.neitherReadNorWriteReqs           28                       # Number of requests that are neither read nor write
system.mem_ctrls.perBankRdBursts::0            273096                       # Per bank write bursts
system.mem_ctrls.perBankRdBursts::1            217583                       # Per bank write bursts
system.mem_ctrls.perBankRdBursts::2            224233                       # Per bank write bursts
system.mem_ctrls.perBankRdBursts::3            229481                       # Per bank write bursts
system.mem_ctrls.perBankRdBursts::4            230785                       # Per bank write bursts
system.mem_ctrls.perBankRdBursts::5            203335                       # Per bank write bursts
system.mem_ctrls.perBankRdBursts::6            212684                       # Per bank write bursts
system.mem_ctrls.perBankRdBursts::7            291081                       # Per bank write bursts
system.mem_ctrls.perBankRdBursts::8            266473                       # Per bank write bursts
system.mem_ctrls.perBankRdBursts::9            249796                       # Per bank write bursts
system.mem_ctrls.perBankRdBursts::10           264832                       # Per bank write bursts
system.mem_ctrls.perBankRdBursts::11           393432                       # Per bank write bursts
system.mem_ctrls.perBankRdBursts::12           272640                       # Per bank write bursts
system.mem_ctrls.perBankRdBursts::13           302500                       # Per bank write bursts
system.mem_ctrls.perBankRdBursts::14           270328                       # Per bank write bursts
system.mem_ctrls.perBankRdBursts::15           222340                       # Per bank write bursts
system.mem_ctrls.perBankWrBursts::0             24524                       # Per bank write bursts
system.mem_ctrls.perBankWrBursts::1             33716                       # Per bank write bursts
system.mem_ctrls.perBankWrBursts::2             21892                       # Per bank write bursts
system.mem_ctrls.perBankWrBursts::3             22124                       # Per bank write bursts
system.mem_ctrls.perBankWrBursts::4             17430                       # Per bank write bursts
system.mem_ctrls.perBankWrBursts::5             27958                       # Per bank write bursts
system.mem_ctrls.perBankWrBursts::6             20933                       # Per bank write bursts
system.mem_ctrls.perBankWrBursts::7             30982                       # Per bank write bursts
system.mem_ctrls.perBankWrBursts::8             26087                       # Per bank write bursts
system.mem_ctrls.perBankWrBursts::9             27549                       # Per bank write bursts
system.mem_ctrls.perBankWrBursts::10            27503                       # Per bank write bursts
system.mem_ctrls.perBankWrBursts::11            61355                       # Per bank write bursts
system.mem_ctrls.perBankWrBursts::12            31135                       # Per bank write bursts
system.mem_ctrls.perBankWrBursts::13            69105                       # Per bank write bursts
system.mem_ctrls.perBankWrBursts::14            40499                       # Per bank write bursts
system.mem_ctrls.perBankWrBursts::15            30113                       # Per bank write bursts
system.mem_ctrls.numRdRetry                         0                       # Number of times read queue was full causing retry
system.mem_ctrls.numWrRetry                        41                       # Number of times write queue was full causing retry
system.mem_ctrls.totGap                  2642017651000                       # Total gap between requests
system.mem_ctrls.readPktSize::0                     0                       # Read request sizes (log2)
system.mem_ctrls.readPktSize::1                     0                       # Read request sizes (log2)
system.mem_ctrls.readPktSize::2                     0                       # Read request sizes (log2)
system.mem_ctrls.readPktSize::3                     0                       # Read request sizes (log2)
system.mem_ctrls.readPktSize::4                     0                       # Read request sizes (log2)
system.mem_ctrls.readPktSize::5                     0                       # Read request sizes (log2)
system.mem_ctrls.readPktSize::6               4159444                       # Read request sizes (log2)
system.mem_ctrls.writePktSize::0                    0                       # Write request sizes (log2)
system.mem_ctrls.writePktSize::1                    0                       # Write request sizes (log2)
system.mem_ctrls.writePktSize::2                    0                       # Write request sizes (log2)
system.mem_ctrls.writePktSize::3                    0                       # Write request sizes (log2)
system.mem_ctrls.writePktSize::4                    0                       # Write request sizes (log2)
system.mem_ctrls.writePktSize::5                    0                       # Write request sizes (log2)
system.mem_ctrls.writePktSize::6               518783                       # Write request sizes (log2)
system.mem_ctrls.rdQLenPdf::0                 4124547                       # What read queue length does an incoming req see
system.mem_ctrls.rdQLenPdf::1                       7                       # What read queue length does an incoming req see
system.mem_ctrls.rdQLenPdf::2                       5                       # What read queue length does an incoming req see
system.mem_ctrls.rdQLenPdf::3                       6                       # What read queue length does an incoming req see
system.mem_ctrls.rdQLenPdf::4                       8                       # What read queue length does an incoming req see
system.mem_ctrls.rdQLenPdf::5                       7                       # What read queue length does an incoming req see
system.mem_ctrls.rdQLenPdf::6                       9                       # What read queue length does an incoming req see
system.mem_ctrls.rdQLenPdf::7                       6                       # What read queue length does an incoming req see
system.mem_ctrls.rdQLenPdf::8                       6                       # What read queue length does an incoming req see
system.mem_ctrls.rdQLenPdf::9                       5                       # What read queue length does an incoming req see
system.mem_ctrls.rdQLenPdf::10                      3                       # What read queue length does an incoming req see
system.mem_ctrls.rdQLenPdf::11                      1                       # What read queue length does an incoming req see
system.mem_ctrls.rdQLenPdf::12                      1                       # What read queue length does an incoming req see
system.mem_ctrls.rdQLenPdf::13                      1                       # What read queue length does an incoming req see
system.mem_ctrls.rdQLenPdf::14                      1                       # What read queue length does an incoming req see
system.mem_ctrls.rdQLenPdf::15                      2                       # What read queue length does an incoming req see
system.mem_ctrls.rdQLenPdf::16                      1                       # What read queue length does an incoming req see
system.mem_ctrls.rdQLenPdf::17                      1                       # What read queue length does an incoming req see
system.mem_ctrls.rdQLenPdf::18                      1                       # What read queue length does an incoming req see
system.mem_ctrls.rdQLenPdf::19                      1                       # What read queue length does an incoming req see
system.mem_ctrls.rdQLenPdf::20                      0                       # What read queue length does an incoming req see
system.mem_ctrls.rdQLenPdf::21                      0                       # What read queue length does an incoming req see
system.mem_ctrls.rdQLenPdf::22                      0                       # What read queue length does an incoming req see
system.mem_ctrls.rdQLenPdf::23                      0                       # What read queue length does an incoming req see
system.mem_ctrls.rdQLenPdf::24                      0                       # What read queue length does an incoming req see
system.mem_ctrls.rdQLenPdf::25                      0                       # What read queue length does an incoming req see
system.mem_ctrls.rdQLenPdf::26                      0                       # What read queue length does an incoming req see
system.mem_ctrls.rdQLenPdf::27                      0                       # What read queue length does an incoming req see
system.mem_ctrls.rdQLenPdf::28                      0                       # What read queue length does an incoming req see
system.mem_ctrls.rdQLenPdf::29                      0                       # What read queue length does an incoming req see
system.mem_ctrls.rdQLenPdf::30                      0                       # What read queue length does an incoming req see
system.mem_ctrls.rdQLenPdf::31                      0                       # What read queue length does an incoming req see
system.mem_ctrls.wrQLenPdf::0                       1                       # What write queue length does an incoming req see
system.mem_ctrls.wrQLenPdf::1                       1                       # What write queue length does an incoming req see
system.mem_ctrls.wrQLenPdf::2                       1                       # What write queue length does an incoming req see
system.mem_ctrls.wrQLenPdf::3                       1                       # What write queue length does an incoming req see
system.mem_ctrls.wrQLenPdf::4                       1                       # What write queue length does an incoming req see
system.mem_ctrls.wrQLenPdf::5                       1                       # What write queue length does an incoming req see
system.mem_ctrls.wrQLenPdf::6                       1                       # What write queue length does an incoming req see
system.mem_ctrls.wrQLenPdf::7                       1                       # What write queue length does an incoming req see
system.mem_ctrls.wrQLenPdf::8                       1                       # What write queue length does an incoming req see
system.mem_ctrls.wrQLenPdf::9                       1                       # What write queue length does an incoming req see
system.mem_ctrls.wrQLenPdf::10                      1                       # What write queue length does an incoming req see
system.mem_ctrls.wrQLenPdf::11                      1                       # What write queue length does an incoming req see
system.mem_ctrls.wrQLenPdf::12                      1                       # What write queue length does an incoming req see
system.mem_ctrls.wrQLenPdf::13                      1                       # What write queue length does an incoming req see
system.mem_ctrls.wrQLenPdf::14                      1                       # What write queue length does an incoming req see
system.mem_ctrls.wrQLenPdf::15                   9240                       # What write queue length does an incoming req see
system.mem_ctrls.wrQLenPdf::16                   9676                       # What write queue length does an incoming req see
system.mem_ctrls.wrQLenPdf::17                  28229                       # What write queue length does an incoming req see
system.mem_ctrls.wrQLenPdf::18                  28296                       # What write queue length does an incoming req see
system.mem_ctrls.wrQLenPdf::19                  28407                       # What write queue length does an incoming req see
system.mem_ctrls.wrQLenPdf::20                  28637                       # What write queue length does an incoming req see
system.mem_ctrls.wrQLenPdf::21                  28782                       # What write queue length does an incoming req see
system.mem_ctrls.wrQLenPdf::22                  29588                       # What write queue length does an incoming req see
system.mem_ctrls.wrQLenPdf::23                  30195                       # What write queue length does an incoming req see
system.mem_ctrls.wrQLenPdf::24                  30881                       # What write queue length does an incoming req see
system.mem_ctrls.wrQLenPdf::25                  31107                       # What write queue length does an incoming req see
system.mem_ctrls.wrQLenPdf::26                  30859                       # What write queue length does an incoming req see
system.mem_ctrls.wrQLenPdf::27                  30819                       # What write queue length does an incoming req see
system.mem_ctrls.wrQLenPdf::28                  31642                       # What write queue length does an incoming req see
system.mem_ctrls.wrQLenPdf::29                  31511                       # What write queue length does an incoming req see
system.mem_ctrls.wrQLenPdf::30                  31546                       # What write queue length does an incoming req see
system.mem_ctrls.wrQLenPdf::31                  31615                       # What write queue length does an incoming req see
system.mem_ctrls.wrQLenPdf::32                  31557                       # What write queue length does an incoming req see
system.mem_ctrls.wrQLenPdf::33                   1406                       # What write queue length does an incoming req see
system.mem_ctrls.wrQLenPdf::34                   1016                       # What write queue length does an incoming req see
system.mem_ctrls.wrQLenPdf::35                    911                       # What write queue length does an incoming req see
system.mem_ctrls.wrQLenPdf::36                    705                       # What write queue length does an incoming req see
system.mem_ctrls.wrQLenPdf::37                    577                       # What write queue length does an incoming req see
system.mem_ctrls.wrQLenPdf::38                    456                       # What write queue length does an incoming req see
system.mem_ctrls.wrQLenPdf::39                    389                       # What write queue length does an incoming req see
system.mem_ctrls.wrQLenPdf::40                    352                       # What write queue length does an incoming req see
system.mem_ctrls.wrQLenPdf::41                    320                       # What write queue length does an incoming req see
system.mem_ctrls.wrQLenPdf::42                    304                       # What write queue length does an incoming req see
system.mem_ctrls.wrQLenPdf::43                    288                       # What write queue length does an incoming req see
system.mem_ctrls.wrQLenPdf::44                    270                       # What write queue length does an incoming req see
system.mem_ctrls.wrQLenPdf::45                    255                       # What write queue length does an incoming req see
system.mem_ctrls.wrQLenPdf::46                    222                       # What write queue length does an incoming req see
system.mem_ctrls.wrQLenPdf::47                    228                       # What write queue length does an incoming req see
system.mem_ctrls.wrQLenPdf::48                    210                       # What write queue length does an incoming req see
system.mem_ctrls.wrQLenPdf::49                    180                       # What write queue length does an incoming req see
system.mem_ctrls.wrQLenPdf::50                    182                       # What write queue length does an incoming req see
system.mem_ctrls.wrQLenPdf::51                    167                       # What write queue length does an incoming req see
system.mem_ctrls.wrQLenPdf::52                    171                       # What write queue length does an incoming req see
system.mem_ctrls.wrQLenPdf::53                    148                       # What write queue length does an incoming req see
system.mem_ctrls.wrQLenPdf::54                    164                       # What write queue length does an incoming req see
system.mem_ctrls.wrQLenPdf::55                    162                       # What write queue length does an incoming req see
system.mem_ctrls.wrQLenPdf::56                    164                       # What write queue length does an incoming req see
system.mem_ctrls.wrQLenPdf::57                    214                       # What write queue length does an incoming req see
system.mem_ctrls.wrQLenPdf::58                    201                       # What write queue length does an incoming req see
system.mem_ctrls.wrQLenPdf::59                    173                       # What write queue length does an incoming req see
system.mem_ctrls.wrQLenPdf::60                    144                       # What write queue length does an incoming req see
system.mem_ctrls.wrQLenPdf::61                    127                       # What write queue length does an incoming req see
system.mem_ctrls.wrQLenPdf::62                    106                       # What write queue length does an incoming req see
system.mem_ctrls.wrQLenPdf::63                    116                       # What write queue length does an incoming req see
system.mem_ctrls.bytesPerActivate::samples      1058797                       # Bytes accessed per row activation
system.mem_ctrls.bytesPerActivate::mean    280.318074                       # Bytes accessed per row activation
system.mem_ctrls.bytesPerActivate::gmean   164.387439                       # Bytes accessed per row activation
system.mem_ctrls.bytesPerActivate::stdev   315.848420                       # Bytes accessed per row activation
system.mem_ctrls.bytesPerActivate::0-127       431034     40.71%     40.71% # Bytes accessed per row activation
system.mem_ctrls.bytesPerActivate::128-255       275922     26.06%     66.77% # Bytes accessed per row activation
system.mem_ctrls.bytesPerActivate::256-383        88708      8.38%     75.15% # Bytes accessed per row activation
system.mem_ctrls.bytesPerActivate::384-511        55597      5.25%     80.40% # Bytes accessed per row activation
system.mem_ctrls.bytesPerActivate::512-639        40277      3.80%     84.20% # Bytes accessed per row activation
system.mem_ctrls.bytesPerActivate::640-767        23146      2.19%     86.39% # Bytes accessed per row activation
system.mem_ctrls.bytesPerActivate::768-895        17476      1.65%     88.04% # Bytes accessed per row activation
system.mem_ctrls.bytesPerActivate::896-1023        12712      1.20%     89.24% # Bytes accessed per row activation
system.mem_ctrls.bytesPerActivate::1024-1151       113925     10.76%    100.00% # Bytes accessed per row activation
system.mem_ctrls.bytesPerActivate::total      1058797                       # Bytes accessed per row activation
system.mem_ctrls.rdPerTurnAround::samples        30494                       # Reads before turning the bus around for writes
system.mem_ctrls.rdPerTurnAround::mean     135.258805                       # Reads before turning the bus around for writes
system.mem_ctrls.rdPerTurnAround::stdev   5910.765709                       # Reads before turning the bus around for writes
system.mem_ctrls.rdPerTurnAround::0-32767        30493    100.00%    100.00% # Reads before turning the bus around for writes
system.mem_ctrls.rdPerTurnAround::1.01581e+06-1.04858e+06            1      0.00%    100.00% # Reads before turning the bus around for writes
system.mem_ctrls.rdPerTurnAround::total         30494                       # Reads before turning the bus around for writes
system.mem_ctrls.wrPerTurnAround::samples        30494                       # Writes before turning the bus around for reads
system.mem_ctrls.wrPerTurnAround::mean      16.819866                       # Writes before turning the bus around for reads
system.mem_ctrls.wrPerTurnAround::gmean     16.712813                       # Writes before turning the bus around for reads
system.mem_ctrls.wrPerTurnAround::stdev      3.238260                       # Writes before turning the bus around for reads
system.mem_ctrls.wrPerTurnAround::16-19         30155     98.89%     98.89% # Writes before turning the bus around for reads
system.mem_ctrls.wrPerTurnAround::20-23           160      0.52%     99.41% # Writes before turning the bus around for reads
system.mem_ctrls.wrPerTurnAround::24-27            78      0.26%     99.67% # Writes before turning the bus around for reads
system.mem_ctrls.wrPerTurnAround::28-31            44      0.14%     99.81% # Writes before turning the bus around for reads
system.mem_ctrls.wrPerTurnAround::32-35            16      0.05%     99.87% # Writes before turning the bus around for reads
system.mem_ctrls.wrPerTurnAround::40-43             1      0.00%     99.87% # Writes before turning the bus around for reads
system.mem_ctrls.wrPerTurnAround::48-51             1      0.00%     99.87% # Writes before turning the bus around for reads
system.mem_ctrls.wrPerTurnAround::60-63             3      0.01%     99.88% # Writes before turning the bus around for reads
system.mem_ctrls.wrPerTurnAround::72-75             1      0.00%     99.89% # Writes before turning the bus around for reads
system.mem_ctrls.wrPerTurnAround::80-83             5      0.02%     99.90% # Writes before turning the bus around for reads
system.mem_ctrls.wrPerTurnAround::84-87             3      0.01%     99.91% # Writes before turning the bus around for reads
system.mem_ctrls.wrPerTurnAround::88-91             1      0.00%     99.91% # Writes before turning the bus around for reads
system.mem_ctrls.wrPerTurnAround::92-95             2      0.01%     99.92% # Writes before turning the bus around for reads
system.mem_ctrls.wrPerTurnAround::96-99            16      0.05%     99.97% # Writes before turning the bus around for reads
system.mem_ctrls.wrPerTurnAround::100-103            1      0.00%     99.98% # Writes before turning the bus around for reads
system.mem_ctrls.wrPerTurnAround::108-111            2      0.01%     99.98% # Writes before turning the bus around for reads
system.mem_ctrls.wrPerTurnAround::120-123            1      0.00%     99.99% # Writes before turning the bus around for reads
system.mem_ctrls.wrPerTurnAround::140-143            1      0.00%     99.99% # Writes before turning the bus around for reads
system.mem_ctrls.wrPerTurnAround::144-147            1      0.00%     99.99% # Writes before turning the bus around for reads
system.mem_ctrls.wrPerTurnAround::152-155            1      0.00%    100.00% # Writes before turning the bus around for reads
system.mem_ctrls.wrPerTurnAround::156-159            1      0.00%    100.00% # Writes before turning the bus around for reads
system.mem_ctrls.wrPerTurnAround::total         30494                       # Writes before turning the bus around for reads
system.mem_ctrls.totQLat                  29681021750                       # Total ticks spent queuing
system.mem_ctrls.totMemAccLat            107017628000                       # Total ticks spent from burst creation until serviced by the DRAM
system.mem_ctrls.totBusLat                20623095000                       # Total ticks spent in databus transfers
system.mem_ctrls.avgQLat                      7196.06                       # Average queueing delay per DRAM burst
system.mem_ctrls.avgBusLat                    5000.00                       # Average bus latency per DRAM burst
system.mem_ctrls.avgMemAccLat                25946.06                       # Average memory access latency per DRAM burst
system.mem_ctrls.avgRdBW                        99.91                       # Average DRAM read bandwidth in MiByte/s
system.mem_ctrls.avgWrBW                        12.42                       # Average achieved write bandwidth in MiByte/s
system.mem_ctrls.avgRdBWSys                    100.76                       # Average system read bandwidth in MiByte/s
system.mem_ctrls.avgWrBWSys                     12.57                       # Average system write bandwidth in MiByte/s
system.mem_ctrls.peakBW                      12800.00                       # Theoretical peak bandwidth in MiByte/s
system.mem_ctrls.busUtil                         0.88                       # Data bus utilization in percentage
system.mem_ctrls.busUtilRead                     0.78                       # Data bus utilization in percentage for reads
system.mem_ctrls.busUtilWrite                    0.10                       # Data bus utilization in percentage for writes
system.mem_ctrls.avgRdQLen                       1.00                       # Average read queue length when enqueuing
system.mem_ctrls.avgWrQLen                      23.82                       # Average write queue length when enqueuing
system.mem_ctrls.readRowHits                  3232634                       # Number of row buffer hits during reads
system.mem_ctrls.writeRowHits                  346086                       # Number of row buffer hits during writes
system.mem_ctrls.readRowHitRate                 78.37                       # Row buffer hit rate for reads
system.mem_ctrls.writeRowHitRate                67.47                       # Row buffer hit rate for writes
system.mem_ctrls.avgGap                     564747.64                       # Average gap between requests
system.mem_ctrls.pageHitRate                    77.17                       # Row buffer hit rate, read and write combined
system.mem_ctrls.memoryStateTime::IDLE   2123528740250                       # Time in different power states
system.mem_ctrls.memoryStateTime::REF     88222680000                       # Time in different power states
system.mem_ctrls.memoryStateTime::PRE_PDN            0                       # Time in different power states
system.mem_ctrls.memoryStateTime::ACT    430263631000                       # Time in different power states
system.mem_ctrls.memoryStateTime::ACT_PDN            0                       # Time in different power states
system.mem_ctrls.actEnergy::0              3088743840                       # Energy for activate commands per rank (pJ)
system.mem_ctrls.actEnergy::1              4915753920                       # Energy for activate commands per rank (pJ)
system.mem_ctrls.preEnergy::0              1685326500                       # Energy for precharge commands per rank (pJ)
system.mem_ctrls.preEnergy::1              2682207000                       # Energy for precharge commands per rank (pJ)
system.mem_ctrls.readEnergy::0            14681737200                       # Energy for read commands per rank (pJ)
system.mem_ctrls.readEnergy::1            17490080400                       # Energy for read commands per rank (pJ)
system.mem_ctrls.writeEnergy::0            1293142320                       # Energy for write commands per rank (pJ)
system.mem_ctrls.writeEnergy::1            2030482080                       # Energy for write commands per rank (pJ)
system.mem_ctrls.refreshEnergy::0        172563562080                       # Energy for refresh commands per rank (pJ)
system.mem_ctrls.refreshEnergy::1        172563562080                       # Energy for refresh commands per rank (pJ)
system.mem_ctrls.actBackEnergy::0        290846013480                       # Energy for active background per rank (pJ)
system.mem_ctrls.actBackEnergy::1        309587694705                       # Energy for active background per rank (pJ)
system.mem_ctrls.preBackEnergy::0        1330080940500                       # Energy for precharge background per rank (pJ)
system.mem_ctrls.preBackEnergy::1        1313640869250                       # Energy for precharge background per rank (pJ)
system.mem_ctrls.totalEnergy::0          1814239465920                       # Total energy per rank (pJ)
system.mem_ctrls.totalEnergy::1          1822910649435                       # Total energy per rank (pJ)
system.mem_ctrls.averagePower::0           686.687789                       # Core power per rank (mW)
system.mem_ctrls.averagePower::1           689.969824                       # Core power per rank (mW)
system.membus.trans_dist::ReadReq             3847416                       # Transaction distribution
system.membus.trans_dist::ReadResp            3847416                       # Transaction distribution
system.membus.trans_dist::WriteReq              10594                       # Transaction distribution
system.membus.trans_dist::WriteResp             10594                       # Transaction distribution
system.membus.trans_dist::Writeback            474527                       # Transaction distribution
system.membus.trans_dist::WriteInvalidateReq        44256                       # Transaction distribution
system.membus.trans_dist::WriteInvalidateResp        44256                       # Transaction distribution
system.membus.trans_dist::UpgradeReq               28                       # Transaction distribution
system.membus.trans_dist::UpgradeResp              28                       # Transaction distribution
system.membus.trans_dist::ReadExReq            319693                       # Transaction distribution
system.membus.trans_dist::ReadExResp           319693                       # Transaction distribution
system.membus.pkt_count_system.iocache.mem_side::system.mem_ctrls.port        88794                       # Packet count per connected master and slave (bytes)
system.membus.pkt_count_system.iocache.mem_side::total        88794                       # Packet count per connected master and slave (bytes)
system.membus.pkt_count_system.cpu.icache.mem_side::system.mem_ctrls.port      2555168                       # Packet count per connected master and slave (bytes)
system.membus.pkt_count_system.cpu.icache.mem_side::total      2555168                       # Packet count per connected master and slave (bytes)
system.membus.pkt_count_system.cpu.dcache.mem_side::system.bridge.slave        36130                       # Packet count per connected master and slave (bytes)
system.membus.pkt_count_system.cpu.dcache.mem_side::system.mem_ctrls.port      6238215                       # Packet count per connected master and slave (bytes)
system.membus.pkt_count_system.cpu.dcache.mem_side::total      6274345                       # Packet count per connected master and slave (bytes)
system.membus.pkt_count::total                8918307                       # Packet count per connected master and slave (bytes)
system.membus.pkt_size_system.iocache.mem_side::system.mem_ctrls.port      2837056                       # Cumulative packet size per connected master and slave (bytes)
system.membus.pkt_size_system.iocache.mem_side::total      2837056                       # Cumulative packet size per connected master and slave (bytes)
system.membus.pkt_size_system.cpu.icache.mem_side::system.mem_ctrls.port     81763520                       # Cumulative packet size per connected master and slave (bytes)
system.membus.pkt_size_system.cpu.icache.mem_side::total     81763520                       # Cumulative packet size per connected master and slave (bytes)
system.membus.pkt_size_system.cpu.dcache.mem_side::system.bridge.slave        48047                       # Cumulative packet size per connected master and slave (bytes)
system.membus.pkt_size_system.cpu.dcache.mem_side::system.mem_ctrls.port    214805952                       # Cumulative packet size per connected master and slave (bytes)
system.membus.pkt_size_system.cpu.dcache.mem_side::total    214853999                       # Cumulative packet size per connected master and slave (bytes)
system.membus.pkt_size::total               299454575                       # Cumulative packet size per connected master and slave (bytes)
system.membus.snoops                              194                       # Total snoops (count)
system.membus.snoop_fanout::samples           4678490                       # Request fanout histogram
system.membus.snoop_fanout::mean                    2                       # Request fanout histogram
system.membus.snoop_fanout::stdev                   0                       # Request fanout histogram
system.membus.snoop_fanout::underflows              0      0.00%      0.00% # Request fanout histogram
system.membus.snoop_fanout::0                       0      0.00%      0.00% # Request fanout histogram
system.membus.snoop_fanout::1                       0      0.00%      0.00% # Request fanout histogram
system.membus.snoop_fanout::2                 4678490    100.00%    100.00% # Request fanout histogram
system.membus.snoop_fanout::3                       0      0.00%    100.00% # Request fanout histogram
system.membus.snoop_fanout::overflows               0      0.00%    100.00% # Request fanout histogram
system.membus.snoop_fanout::min_value               2                       # Request fanout histogram
system.membus.snoop_fanout::max_value               2                       # Request fanout histogram
system.membus.snoop_fanout::total             4678490                       # Request fanout histogram
system.membus.reqLayer0.occupancy            28659000                       # Layer occupancy (ticks)
system.membus.reqLayer0.utilization               0.0                       # Layer utilization (%)
system.membus.reqLayer1.occupancy          8828767000                       # Layer occupancy (ticks)
system.membus.reqLayer1.utilization               0.3                       # Layer utilization (%)
system.membus.respLayer1.occupancy           46188217                       # Layer occupancy (ticks)
system.membus.respLayer1.utilization              0.0                       # Layer utilization (%)
system.membus.respLayer2.occupancy        11942400997                       # Layer occupancy (ticks)
system.membus.respLayer2.utilization              0.5                       # Layer utilization (%)
system.membus.respLayer3.occupancy        26856865221                       # Layer occupancy (ticks)
system.membus.respLayer3.utilization              1.0                       # Layer utilization (%)
system.iocache.tags.replacements                44449                       # number of replacements
system.iocache.tags.tagsinuse                0.401124                       # Cycle average of tags in use
system.iocache.tags.total_refs                      0                       # Total number of references to valid blocks.
system.iocache.tags.sampled_refs                44449                       # Sample count of references to valid blocks.
system.iocache.tags.avg_refs                        0                       # Average number of references to valid blocks.
system.iocache.tags.warmup_cycle         2575781757000                       # Cycle when the warmup percentage was hit.
system.iocache.tags.occ_blocks::tsunami.ide     0.401124                       # Average occupied blocks per requestor
system.iocache.tags.occ_percent::tsunami.ide     0.025070                       # Average percentage of cache occupancy
system.iocache.tags.occ_percent::total       0.025070                       # Average percentage of cache occupancy
system.iocache.tags.occ_task_id_blocks::1023           16                       # Occupied blocks per task id
system.iocache.tags.age_task_id_blocks_1023::4           16                       # Occupied blocks per task id
system.iocache.tags.occ_task_id_percent::1023            1                       # Percentage of cache occupancy per task id
system.iocache.tags.tag_accesses               400393                       # Number of tag accesses
system.iocache.tags.data_accesses              400393                       # Number of data accesses
system.iocache.WriteInvalidateReq_hits::tsunami.ide        44256                       # number of WriteInvalidateReq hits
system.iocache.WriteInvalidateReq_hits::total        44256                       # number of WriteInvalidateReq hits
system.iocache.ReadReq_misses::tsunami.ide          209                       # number of ReadReq misses
system.iocache.ReadReq_misses::total              209                       # number of ReadReq misses
system.iocache.WriteInvalidateReq_misses::tsunami.ide           26                       # number of WriteInvalidateReq misses
system.iocache.WriteInvalidateReq_misses::total           26                       # number of WriteInvalidateReq misses
system.iocache.demand_misses::tsunami.ide          209                       # number of demand (read+write) misses
system.iocache.demand_misses::total               209                       # number of demand (read+write) misses
system.iocache.overall_misses::tsunami.ide          209                       # number of overall misses
system.iocache.overall_misses::total              209                       # number of overall misses
system.iocache.ReadReq_miss_latency::tsunami.ide     31016854                       # number of ReadReq miss cycles
system.iocache.ReadReq_miss_latency::total     31016854                       # number of ReadReq miss cycles
system.iocache.demand_miss_latency::tsunami.ide     31016854                       # number of demand (read+write) miss cycles
system.iocache.demand_miss_latency::total     31016854                       # number of demand (read+write) miss cycles
system.iocache.overall_miss_latency::tsunami.ide     31016854                       # number of overall miss cycles
system.iocache.overall_miss_latency::total     31016854                       # number of overall miss cycles
system.iocache.ReadReq_accesses::tsunami.ide          209                       # number of ReadReq accesses(hits+misses)
system.iocache.ReadReq_accesses::total            209                       # number of ReadReq accesses(hits+misses)
system.iocache.WriteInvalidateReq_accesses::tsunami.ide        44282                       # number of WriteInvalidateReq accesses(hits+misses)
system.iocache.WriteInvalidateReq_accesses::total        44282                       # number of WriteInvalidateReq accesses(hits+misses)
system.iocache.demand_accesses::tsunami.ide          209                       # number of demand (read+write) accesses
system.iocache.demand_accesses::total             209                       # number of demand (read+write) accesses
system.iocache.overall_accesses::tsunami.ide          209                       # number of overall (read+write) accesses
system.iocache.overall_accesses::total            209                       # number of overall (read+write) accesses
system.iocache.ReadReq_miss_rate::tsunami.ide            1                       # miss rate for ReadReq accesses
system.iocache.ReadReq_miss_rate::total             1                       # miss rate for ReadReq accesses
system.iocache.WriteInvalidateReq_miss_rate::tsunami.ide     0.000587                       # miss rate for WriteInvalidateReq accesses
system.iocache.WriteInvalidateReq_miss_rate::total     0.000587                       # miss rate for WriteInvalidateReq accesses
system.iocache.demand_miss_rate::tsunami.ide            1                       # miss rate for demand accesses
system.iocache.demand_miss_rate::total              1                       # miss rate for demand accesses
system.iocache.overall_miss_rate::tsunami.ide            1                       # miss rate for overall accesses
system.iocache.overall_miss_rate::total             1                       # miss rate for overall accesses
system.iocache.ReadReq_avg_miss_latency::tsunami.ide       148406                       # average ReadReq miss latency
system.iocache.ReadReq_avg_miss_latency::total       148406                       # average ReadReq miss latency
system.iocache.demand_avg_miss_latency::tsunami.ide       148406                       # average overall miss latency
system.iocache.demand_avg_miss_latency::total       148406                       # average overall miss latency
system.iocache.overall_avg_miss_latency::tsunami.ide       148406                       # average overall miss latency
system.iocache.overall_avg_miss_latency::total       148406                       # average overall miss latency
system.iocache.blocked_cycles::no_mshrs           442                       # number of cycles access was blocked
system.iocache.blocked_cycles::no_targets            0                       # number of cycles access was blocked
system.iocache.blocked::no_mshrs                   45                       # number of cycles access was blocked
system.iocache.blocked::no_targets                  0                       # number of cycles access was blocked
system.iocache.avg_blocked_cycles::no_mshrs     9.822222                       # average number of cycles each access was blocked
system.iocache.avg_blocked_cycles::no_targets          nan                       # average number of cycles each access was blocked
system.iocache.fast_writes                      44256                       # number of fast writes performed
system.iocache.cache_copies                         0                       # number of cache copies performed
system.iocache.ReadReq_mshr_misses::tsunami.ide          209                       # number of ReadReq MSHR misses
system.iocache.ReadReq_mshr_misses::total          209                       # number of ReadReq MSHR misses
system.iocache.WriteInvalidateReq_mshr_misses::tsunami.ide        44256                       # number of WriteInvalidateReq MSHR misses
system.iocache.WriteInvalidateReq_mshr_misses::total        44256                       # number of WriteInvalidateReq MSHR misses
system.iocache.demand_mshr_misses::tsunami.ide          209                       # number of demand (read+write) MSHR misses
system.iocache.demand_mshr_misses::total          209                       # number of demand (read+write) MSHR misses
system.iocache.overall_mshr_misses::tsunami.ide          209                       # number of overall MSHR misses
system.iocache.overall_mshr_misses::total          209                       # number of overall MSHR misses
system.iocache.ReadReq_mshr_miss_latency::tsunami.ide     20138354                       # number of ReadReq MSHR miss cycles
system.iocache.ReadReq_mshr_miss_latency::total     20138354                       # number of ReadReq MSHR miss cycles
system.iocache.WriteInvalidateReq_mshr_miss_latency::tsunami.ide   2937523743                       # number of WriteInvalidateReq MSHR miss cycles
system.iocache.WriteInvalidateReq_mshr_miss_latency::total   2937523743                       # number of WriteInvalidateReq MSHR miss cycles
system.iocache.demand_mshr_miss_latency::tsunami.ide     20138354                       # number of demand (read+write) MSHR miss cycles
system.iocache.demand_mshr_miss_latency::total     20138354                       # number of demand (read+write) MSHR miss cycles
system.iocache.overall_mshr_miss_latency::tsunami.ide     20138354                       # number of overall MSHR miss cycles
system.iocache.overall_mshr_miss_latency::total     20138354                       # number of overall MSHR miss cycles
system.iocache.ReadReq_mshr_miss_rate::tsunami.ide            1                       # mshr miss rate for ReadReq accesses
system.iocache.ReadReq_mshr_miss_rate::total            1                       # mshr miss rate for ReadReq accesses
system.iocache.WriteInvalidateReq_mshr_miss_rate::tsunami.ide     0.999413                       # mshr miss rate for WriteInvalidateReq accesses
system.iocache.WriteInvalidateReq_mshr_miss_rate::total     0.999413                       # mshr miss rate for WriteInvalidateReq accesses
system.iocache.demand_mshr_miss_rate::tsunami.ide            1                       # mshr miss rate for demand accesses
system.iocache.demand_mshr_miss_rate::total            1                       # mshr miss rate for demand accesses
system.iocache.overall_mshr_miss_rate::tsunami.ide            1                       # mshr miss rate for overall accesses
system.iocache.overall_mshr_miss_rate::total            1                       # mshr miss rate for overall accesses
system.iocache.ReadReq_avg_mshr_miss_latency::tsunami.ide 96355.760766                       # average ReadReq mshr miss latency
system.iocache.ReadReq_avg_mshr_miss_latency::total 96355.760766                       # average ReadReq mshr miss latency
system.iocache.WriteInvalidateReq_avg_mshr_miss_latency::tsunami.ide 66375.717259                       # average WriteInvalidateReq mshr miss latency
system.iocache.WriteInvalidateReq_avg_mshr_miss_latency::total 66375.717259                       # average WriteInvalidateReq mshr miss latency
system.iocache.demand_avg_mshr_miss_latency::tsunami.ide 96355.760766                       # average overall mshr miss latency
system.iocache.demand_avg_mshr_miss_latency::total 96355.760766                       # average overall mshr miss latency
system.iocache.overall_avg_mshr_miss_latency::tsunami.ide 96355.760766                       # average overall mshr miss latency
system.iocache.overall_avg_mshr_miss_latency::total 96355.760766                       # average overall mshr miss latency
system.iocache.no_allocate_misses                   0                       # Number of misses that were no-allocate
system.disk0.dma_read_full_pages                    0                       # Number of full page size DMA reads (not PRD).
system.disk0.dma_read_bytes                      4096                       # Number of bytes transfered via DMA reads (not PRD).
system.disk0.dma_read_txs                           1                       # Number of DMA read transactions (not PRD).
system.disk0.dma_write_full_pages                 326                       # Number of full page size DMA writes.
system.disk0.dma_write_bytes                  2824192                       # Number of bytes transfered via DMA writes.
system.disk0.dma_write_txs                        365                       # Number of DMA write transactions.
system.disk2.dma_read_full_pages                    0                       # Number of full page size DMA reads (not PRD).
system.disk2.dma_read_bytes                         0                       # Number of bytes transfered via DMA reads (not PRD).
system.disk2.dma_read_txs                           0                       # Number of DMA read transactions (not PRD).
system.disk2.dma_write_full_pages                   1                       # Number of full page size DMA writes.
system.disk2.dma_write_bytes                     8192                       # Number of bytes transfered via DMA writes.
system.disk2.dma_write_txs                          1                       # Number of DMA write transactions.
system.cpu_voltage_domain.voltage                   1                       # Voltage in Volts
system.cpu_clk_domain.clock                      1000                       # Clock period in ticks
system.cpu.dtb.fetch_hits                           0                       # ITB hits
system.cpu.dtb.fetch_misses                         0                       # ITB misses
system.cpu.dtb.fetch_acv                            0                       # ITB acv
system.cpu.dtb.fetch_accesses                       0                       # ITB accesses
system.cpu.dtb.read_hits                     15893111                       # DTB read hits
system.cpu.dtb.read_misses                      12457                       # DTB read misses
system.cpu.dtb.read_acv                            99                       # DTB read access violations
system.cpu.dtb.read_accesses                   871697                       # DTB read accesses
system.cpu.dtb.write_hits                     8214570                       # DTB write hits
system.cpu.dtb.write_misses                      1314                       # DTB write misses
system.cpu.dtb.write_acv                          170                       # DTB write access violations
system.cpu.dtb.write_accesses                  352725                       # DTB write accesses
system.cpu.dtb.data_hits                     24107681                       # DTB hits
system.cpu.dtb.data_misses                      13771                       # DTB misses
system.cpu.dtb.data_acv                           269                       # DTB access violations
system.cpu.dtb.data_accesses                  1224422                       # DTB accesses
system.cpu.itb.fetch_hits                     5916959                       # ITB hits
system.cpu.itb.fetch_misses                      6171                       # ITB misses
system.cpu.itb.fetch_acv                            1                       # ITB acv
system.cpu.itb.fetch_accesses                 5923130                       # ITB accesses
system.cpu.itb.read_hits                            0                       # DTB read hits
system.cpu.itb.read_misses                          0                       # DTB read misses
system.cpu.itb.read_acv                             0                       # DTB read access violations
system.cpu.itb.read_accesses                        0                       # DTB read accesses
system.cpu.itb.write_hits                           0                       # DTB write hits
system.cpu.itb.write_misses                         0                       # DTB write misses
system.cpu.itb.write_acv                            0                       # DTB write access violations
system.cpu.itb.write_accesses                       0                       # DTB write accesses
system.cpu.itb.data_hits                            0                       # DTB hits
system.cpu.itb.data_misses                          0                       # DTB misses
system.cpu.itb.data_acv                             0                       # DTB access violations
system.cpu.itb.data_accesses                        0                       # DTB accesses
system.cpu.numCycles                       2642017697                       # number of cpu cycles simulated
system.cpu.numWorkItemsStarted                      0                       # number of work items this cpu started
system.cpu.numWorkItemsCompleted                    0                       # number of work items this cpu completed
system.cpu.committedInsts                    90145783                       # Number of instructions committed
system.cpu.committedOps                      90145783                       # Number of ops (including micro ops) committed
system.cpu.num_int_alu_accesses              87206305                       # Number of integer alu accesses
system.cpu.num_fp_alu_accesses                 392690                       # Number of float alu accesses
system.cpu.num_func_calls                     2803682                       # number of times a function call or return occured
system.cpu.num_conditional_control_insts     11354130                       # number of instructions that are conditional controls
system.cpu.num_int_insts                     87206305                       # number of integer instructions
system.cpu.num_fp_insts                        392690                       # number of float instructions
system.cpu.num_int_register_reads           119764908                       # number of times the integer registers were read
system.cpu.num_int_register_writes           66457184                       # number of times the integer registers were written
system.cpu.num_fp_register_reads               177263                       # number of times the floating registers were read
system.cpu.num_fp_register_writes              180174                       # number of times the floating registers were written
system.cpu.num_mem_refs                      24166568                       # number of memory refs
system.cpu.num_load_insts                    15934420                       # Number of load instructions
system.cpu.num_store_insts                    8232148                       # Number of store instructions
system.cpu.num_idle_cycles               2192669204.499170                       # Number of idle cycles
system.cpu.num_busy_cycles               449348492.500830                       # Number of busy cycles
system.cpu.not_idle_fraction                 0.170078                       # Percentage of non-idle cycles
system.cpu.idle_fraction                     0.829922                       # Percentage of idle cycles
system.cpu.Branches                          14768902                       # Number of branches fetched
system.cpu.op_class::No_OpClass               1599901      1.77%      1.77% # Class of executed instruction
system.cpu.op_class::IntAlu                  62596504     69.43%     71.20% # Class of executed instruction
system.cpu.op_class::IntMult                   153401      0.17%     71.37% # Class of executed instruction
system.cpu.op_class::IntDiv                         0      0.00%     71.37% # Class of executed instruction
system.cpu.op_class::FloatAdd                   84939      0.09%     71.47% # Class of executed instruction
system.cpu.op_class::FloatCmp                       0      0.00%     71.47% # Class of executed instruction
system.cpu.op_class::FloatCvt                       0      0.00%     71.47% # Class of executed instruction
system.cpu.op_class::FloatMult                      0      0.00%     71.47% # Class of executed instruction
system.cpu.op_class::FloatDiv                    4185      0.00%     71.47% # Class of executed instruction
system.cpu.op_class::FloatSqrt                      0      0.00%     71.47% # Class of executed instruction
system.cpu.op_class::SimdAdd                        0      0.00%     71.47% # Class of executed instruction
system.cpu.op_class::SimdAddAcc                     0      0.00%     71.47% # Class of executed instruction
system.cpu.op_class::SimdAlu                        0      0.00%     71.47% # Class of executed instruction
system.cpu.op_class::SimdCmp                        0      0.00%     71.47% # Class of executed instruction
system.cpu.op_class::SimdCvt                        0      0.00%     71.47% # Class of executed instruction
system.cpu.op_class::SimdMisc                       0      0.00%     71.47% # Class of executed instruction
system.cpu.op_class::SimdMult                       0      0.00%     71.47% # Class of executed instruction
system.cpu.op_class::SimdMultAcc                    0      0.00%     71.47% # Class of executed instruction
system.cpu.op_class::SimdShift                      0      0.00%     71.47% # Class of executed instruction
system.cpu.op_class::SimdShiftAcc                   0      0.00%     71.47% # Class of executed instruction
system.cpu.op_class::SimdSqrt                       0      0.00%     71.47% # Class of executed instruction
system.cpu.op_class::SimdFloatAdd                   0      0.00%     71.47% # Class of executed instruction
system.cpu.op_class::SimdFloatAlu                   0      0.00%     71.47% # Class of executed instruction
system.cpu.op_class::SimdFloatCmp                   0      0.00%     71.47% # Class of executed instruction
system.cpu.op_class::SimdFloatCvt                   0      0.00%     71.47% # Class of executed instruction
system.cpu.op_class::SimdFloatDiv                   0      0.00%     71.47% # Class of executed instruction
system.cpu.op_class::SimdFloatMisc                  0      0.00%     71.47% # Class of executed instruction
system.cpu.op_class::SimdFloatMult                  0      0.00%     71.47% # Class of executed instruction
system.cpu.op_class::SimdFloatMultAcc               0      0.00%     71.47% # Class of executed instruction
system.cpu.op_class::SimdFloatSqrt                  0      0.00%     71.47% # Class of executed instruction
system.cpu.op_class::MemRead                 16325269     18.11%     89.58% # Class of executed instruction
system.cpu.op_class::MemWrite                 8306598      9.21%     98.79% # Class of executed instruction
system.cpu.op_class::IprAccess                1089026      1.21%    100.00% # Class of executed instruction
system.cpu.op_class::InstPrefetch                   0      0.00%    100.00% # Class of executed instruction
system.cpu.op_class::total                   90159823                       # Class of executed instruction
system.cpu.kern.inst.arm                            0                       # number of arm instructions executed
system.cpu.kern.inst.quiesce                     7133                       # number of quiesce instructions executed
system.cpu.kern.inst.hwrei                     238867                       # number of hwrei instructions executed
system.cpu.kern.ipl_count::0                    82710     39.93%     39.93% # number of times we switched to this ipl
system.cpu.kern.ipl_count::21                     120      0.06%     39.99% # number of times we switched to this ipl
system.cpu.kern.ipl_count::22                    2625      1.27%     41.25% # number of times we switched to this ipl
system.cpu.kern.ipl_count::31                  121686     58.75%    100.00% # number of times we switched to this ipl
system.cpu.kern.ipl_count::total               207141                       # number of times we switched to this ipl
system.cpu.kern.ipl_good::0                     81173     49.17%     49.17% # number of times we switched to this ipl from a different ipl
system.cpu.kern.ipl_good::21                      120      0.07%     49.24% # number of times we switched to this ipl from a different ipl
system.cpu.kern.ipl_good::22                     2625      1.59%     50.83% # number of times we switched to this ipl from a different ipl
system.cpu.kern.ipl_good::31                    81173     49.17%    100.00% # number of times we switched to this ipl from a different ipl
system.cpu.kern.ipl_good::total                165091                       # number of times we switched to this ipl from a different ipl
system.cpu.kern.ipl_ticks::0             2475196528000     93.69%     93.69% # number of cycles we spent at this ipl
system.cpu.kern.ipl_ticks::21               185137000      0.01%     93.69% # number of cycles we spent at this ipl
system.cpu.kern.ipl_ticks::22              1744835000      0.07%     93.76% # number of cycles we spent at this ipl
system.cpu.kern.ipl_ticks::31            164888725000      6.24%    100.00% # number of cycles we spent at this ipl
system.cpu.kern.ipl_ticks::total         2642015225000                       # number of cycles we spent at this ipl
system.cpu.kern.ipl_used::0                  0.981417                       # fraction of swpipl calls that actually changed the ipl
system.cpu.kern.ipl_used::21                        1                       # fraction of swpipl calls that actually changed the ipl
system.cpu.kern.ipl_used::22                        1                       # fraction of swpipl calls that actually changed the ipl
system.cpu.kern.ipl_used::31                 0.667069                       # fraction of swpipl calls that actually changed the ipl
system.cpu.kern.ipl_used::total              0.796998                       # fraction of swpipl calls that actually changed the ipl
system.cpu.kern.syscall::2                          8      2.17%      2.17% # number of syscalls executed
system.cpu.kern.syscall::3                         33      8.94%     11.11% # number of syscalls executed
system.cpu.kern.syscall::4                          7      1.90%     13.01% # number of syscalls executed
system.cpu.kern.syscall::6                         45     12.20%     25.20% # number of syscalls executed
system.cpu.kern.syscall::12                         1      0.27%     25.47% # number of syscalls executed
system.cpu.kern.syscall::15                         1      0.27%     25.75% # number of syscalls executed
system.cpu.kern.syscall::17                        18      4.88%     30.62% # number of syscalls executed
system.cpu.kern.syscall::19                        11      2.98%     33.60% # number of syscalls executed
system.cpu.kern.syscall::20                         6      1.63%     35.23% # number of syscalls executed
system.cpu.kern.syscall::23                         4      1.08%     36.31% # number of syscalls executed
system.cpu.kern.syscall::24                         8      2.17%     38.48% # number of syscalls executed
system.cpu.kern.syscall::33                        12      3.25%     41.73% # number of syscalls executed
system.cpu.kern.syscall::41                         2      0.54%     42.28% # number of syscalls executed
system.cpu.kern.syscall::45                        62     16.80%     59.08% # number of syscalls executed
system.cpu.kern.syscall::47                         8      2.17%     61.25% # number of syscalls executed
system.cpu.kern.syscall::48                        10      2.71%     63.96% # number of syscalls executed
system.cpu.kern.syscall::54                        12      3.25%     67.21% # number of syscalls executed
system.cpu.kern.syscall::58                         2      0.54%     67.75% # number of syscalls executed
system.cpu.kern.syscall::59                         7      1.90%     69.65% # number of syscalls executed
system.cpu.kern.syscall::71                        63     17.07%     86.72% # number of syscalls executed
system.cpu.kern.syscall::73                         5      1.36%     88.08% # number of syscalls executed
system.cpu.kern.syscall::74                        18      4.88%     92.95% # number of syscalls executed
system.cpu.kern.syscall::87                         2      0.54%     93.50% # number of syscalls executed
system.cpu.kern.syscall::90                         3      0.81%     94.31% # number of syscalls executed
system.cpu.kern.syscall::92                         9      2.44%     96.75% # number of syscalls executed
system.cpu.kern.syscall::97                         2      0.54%     97.29% # number of syscalls executed
system.cpu.kern.syscall::98                         2      0.54%     97.83% # number of syscalls executed
system.cpu.kern.syscall::132                        4      1.08%     98.92% # number of syscalls executed
system.cpu.kern.syscall::144                        2      0.54%     99.46% # number of syscalls executed
system.cpu.kern.syscall::147                        2      0.54%    100.00% # number of syscalls executed
system.cpu.kern.syscall::total                    369                       # number of syscalls executed
system.cpu.kern.callpal::cserve                     1      0.00%      0.00% # number of callpals executed
system.cpu.kern.callpal::wrmces                     1      0.00%      0.00% # number of callpals executed
system.cpu.kern.callpal::wrfen                      1      0.00%      0.00% # number of callpals executed
system.cpu.kern.callpal::wrvptptr                   1      0.00%      0.00% # number of callpals executed
system.cpu.kern.callpal::swpctx                  4489      2.08%      2.08% # number of callpals executed
system.cpu.kern.callpal::tbi                       65      0.03%      2.11% # number of callpals executed
system.cpu.kern.callpal::wrent                      7      0.00%      2.11% # number of callpals executed
system.cpu.kern.callpal::swpipl                198156     91.78%     93.89% # number of callpals executed
system.cpu.kern.callpal::rdps                    6125      2.84%     96.73% # number of callpals executed
system.cpu.kern.callpal::wrkgp                      1      0.00%     96.73% # number of callpals executed
system.cpu.kern.callpal::wrusp                      8      0.00%     96.73% # number of callpals executed
system.cpu.kern.callpal::rdusp                     10      0.00%     96.74% # number of callpals executed
system.cpu.kern.callpal::whami                      2      0.00%     96.74% # number of callpals executed
system.cpu.kern.callpal::rti                     6239      2.89%     99.63% # number of callpals executed
system.cpu.kern.callpal::callsys                  565      0.26%     99.89% # number of callpals executed
system.cpu.kern.callpal::imb                      237      0.11%    100.00% # number of callpals executed
system.cpu.kern.callpal::total                 215908                       # number of callpals executed
system.cpu.kern.mode_switch::kernel              6931                       # number of protection mode switches
system.cpu.kern.mode_switch::user                1987                       # number of protection mode switches
system.cpu.kern.mode_switch::idle                2303                       # number of protection mode switches
system.cpu.kern.mode_good::kernel                2047                      
system.cpu.kern.mode_good::user                  1987                      
system.cpu.kern.mode_good::idle                    60                      
system.cpu.kern.mode_switch_good::kernel     0.295340                       # fraction of useful protection mode switches
system.cpu.kern.mode_switch_good::user              1                       # fraction of useful protection mode switches
system.cpu.kern.mode_switch_good::idle       0.026053                       # fraction of useful protection mode switches
system.cpu.kern.mode_switch_good::total      0.364852                       # fraction of useful protection mode switches
system.cpu.kern.mode_ticks::kernel       344805148000     13.05%     13.05% # number of ticks spent at the given mode
system.cpu.kern.mode_ticks::user          13675568000      0.52%     13.57% # number of ticks spent at the given mode
system.cpu.kern.mode_ticks::idle         2283534500000     86.43%    100.00% # number of ticks spent at the given mode
system.cpu.kern.swap_context                     4490                       # number of times the context was actually changed
system.tsunami.ethernet.descDMAReads                0                       # Number of descriptors the device read w/ DMA
system.tsunami.ethernet.descDMAWrites               0                       # Number of descriptors the device wrote w/ DMA
system.tsunami.ethernet.descDmaReadBytes            0                       # number of descriptor bytes read w/ DMA
system.tsunami.ethernet.descDmaWriteBytes            0                       # number of descriptor bytes write w/ DMA
system.tsunami.ethernet.postedSwi                   0                       # number of software interrupts posted to CPU
system.tsunami.ethernet.coalescedSwi              nan                       # average number of Swi's coalesced into each post
system.tsunami.ethernet.totalSwi                    0                       # total number of Swi written to ISR
system.tsunami.ethernet.postedRxIdle                0                       # number of rxIdle interrupts posted to CPU
system.tsunami.ethernet.coalescedRxIdle           nan                       # average number of RxIdle's coalesced into each post
system.tsunami.ethernet.totalRxIdle                 0                       # total number of RxIdle written to ISR
system.tsunami.ethernet.postedRxOk                  0                       # number of RxOk interrupts posted to CPU
system.tsunami.ethernet.coalescedRxOk             nan                       # average number of RxOk's coalesced into each post
system.tsunami.ethernet.totalRxOk                   0                       # total number of RxOk written to ISR
system.tsunami.ethernet.postedRxDesc                0                       # number of RxDesc interrupts posted to CPU
system.tsunami.ethernet.coalescedRxDesc           nan                       # average number of RxDesc's coalesced into each post
system.tsunami.ethernet.totalRxDesc                 0                       # total number of RxDesc written to ISR
system.tsunami.ethernet.postedTxOk                  0                       # number of TxOk interrupts posted to CPU
system.tsunami.ethernet.coalescedTxOk             nan                       # average number of TxOk's coalesced into each post
system.tsunami.ethernet.totalTxOk                   0                       # total number of TxOk written to ISR
system.tsunami.ethernet.postedTxIdle                0                       # number of TxIdle interrupts posted to CPU
system.tsunami.ethernet.coalescedTxIdle           nan                       # average number of TxIdle's coalesced into each post
system.tsunami.ethernet.totalTxIdle                 0                       # total number of TxIdle written to ISR
system.tsunami.ethernet.postedTxDesc                0                       # number of TxDesc interrupts posted to CPU
system.tsunami.ethernet.coalescedTxDesc           nan                       # average number of TxDesc's coalesced into each post
system.tsunami.ethernet.totalTxDesc                 0                       # total number of TxDesc written to ISR
system.tsunami.ethernet.postedRxOrn                 0                       # number of RxOrn posted to CPU
system.tsunami.ethernet.coalescedRxOrn            nan                       # average number of RxOrn's coalesced into each post
system.tsunami.ethernet.totalRxOrn                  0                       # total number of RxOrn written to ISR
system.tsunami.ethernet.coalescedTotal            nan                       # average number of interrupts coalesced into each post
system.tsunami.ethernet.postedInterrupts            0                       # number of posts to CPU
system.tsunami.ethernet.droppedPackets              0                       # number of packets dropped
system.iobus.trans_dist::ReadReq                 7680                       # Transaction distribution
system.iobus.trans_dist::ReadResp                7680                       # Transaction distribution
system.iobus.trans_dist::WriteReq               54824                       # Transaction distribution
system.iobus.trans_dist::WriteResp              54850                       # Transaction distribution
system.iobus.trans_dist::WriteInvalidateReq           26                       # Transaction distribution
system.iobus.pkt_count_system.bridge.master::system.tsunami.cchip.pio         5900                       # Packet count per connected master and slave (bytes)
system.iobus.pkt_count_system.bridge.master::system.tsunami.pchip.pio          296                       # Packet count per connected master and slave (bytes)
system.iobus.pkt_count_system.bridge.master::system.tsunami.fake_sm_chip.pio           20                       # Packet count per connected master and slave (bytes)
system.iobus.pkt_count_system.bridge.master::system.tsunami.fake_uart4.pio           20                       # Packet count per connected master and slave (bytes)
system.iobus.pkt_count_system.bridge.master::system.tsunami.fake_ata0.pio           22                       # Packet count per connected master and slave (bytes)
system.iobus.pkt_count_system.bridge.master::system.tsunami.fake_ata1.pio           22                       # Packet count per connected master and slave (bytes)
system.iobus.pkt_count_system.bridge.master::system.tsunami.io.pio          256                       # Packet count per connected master and slave (bytes)
system.iobus.pkt_count_system.bridge.master::system.tsunami.uart.pio        21144                       # Packet count per connected master and slave (bytes)
system.iobus.pkt_count_system.bridge.master::system.tsunami.backdoor.pio         1906                       # Packet count per connected master and slave (bytes)
system.iobus.pkt_count_system.bridge.master::system.tsunami.ide.pio         5904                       # Packet count per connected master and slave (bytes)
system.iobus.pkt_count_system.bridge.master::system.tsunami.ide-pciconf          284                       # Packet count per connected master and slave (bytes)
system.iobus.pkt_count_system.bridge.master::system.tsunami.ethernet.pio          100                       # Packet count per connected master and slave (bytes)
system.iobus.pkt_count_system.bridge.master::system.tsunami.ethernet-pciconf          196                       # Packet count per connected master and slave (bytes)
system.iobus.pkt_count_system.bridge.master::system.tsunami.pciconfig.pio           60                       # Packet count per connected master and slave (bytes)
system.iobus.pkt_count_system.bridge.master::total        36130                       # Packet count per connected master and slave (bytes)
system.iobus.pkt_count_system.tsunami.ide.dma::system.iocache.cpu_side        88930                       # Packet count per connected master and slave (bytes)
system.iobus.pkt_count_system.tsunami.ide.dma::total        88930                       # Packet count per connected master and slave (bytes)
system.iobus.pkt_count::total                  125060                       # Packet count per connected master and slave (bytes)
system.iobus.pkt_size_system.bridge.master::system.tsunami.cchip.pio        23600                       # Cumulative packet size per connected master and slave (bytes)
system.iobus.pkt_size_system.bridge.master::system.tsunami.pchip.pio         1184                       # Cumulative packet size per connected master and slave (bytes)
[...]
system.cpu.icache.ReadReq_mshr_misses::total         7935                       # number of ReadReq MSHR misses
system.cpu.icache.demand_mshr_misses::cpu.inst         7935                       # number of demand (read+write) MSHR misses
system.cpu.icache.demand_mshr_misses::total         7935                       # number of demand (read+write) MSHR misses
system.cpu.icache.overall_mshr_misses::cpu.inst         7935                       # number of overall MSHR misses
system.cpu.icache.overall_mshr_misses::total         7935                       # number of overall MSHR misses
system.cpu.icache.ReadReq_mshr_miss_latency::cpu.inst    403677750                       # number of ReadReq MSHR miss cycles
system.cpu.icache.ReadReq_mshr_miss_latency::total    403677750                       # number of ReadReq MSHR miss cycles
system.cpu.icache.demand_mshr_miss_latency::cpu.inst    403677750                       # number of demand (read+write) MSHR miss cycles
system.cpu.icache.demand_mshr_miss_latency::total    403677750                       # number of demand (read+write) MSHR miss cycles
system.cpu.icache.overall_mshr_miss_latency::cpu.inst    403677750                       # number of overall MSHR miss cycles
system.cpu.icache.overall_mshr_miss_latency::total    403677750                       # number of overall MSHR miss cycles
system.cpu.icache.ReadReq_mshr_miss_rate::cpu.inst     0.010343                       # mshr miss rate for ReadReq accesses
system.cpu.icache.ReadReq_mshr_miss_rate::total     0.010343                       # mshr miss rate for ReadReq accesses
system.cpu.icache.demand_mshr_miss_rate::cpu.inst     0.010343                       # mshr miss rate for demand accesses
system.cpu.icache.demand_mshr_miss_rate::total     0.010343                       # mshr miss rate for demand accesses
system.cpu.icache.overall_mshr_miss_rate::cpu.inst     0.010343                       # mshr miss rate for overall accesses
system.cpu.icache.overall_mshr_miss_rate::total     0.010343                       # mshr miss rate for overall accesses
system.cpu.icache.ReadReq_avg_mshr_miss_latency::cpu.inst 50873.062382                       # average ReadReq mshr miss latency
system.cpu.icache.ReadReq_avg_mshr_miss_latency::total 50873.062382                       # average ReadReq mshr miss latency
system.cpu.icache.demand_avg_mshr_miss_latency::cpu.inst 50873.062382                       # average overall mshr miss latency
system.cpu.icache.demand_avg_mshr_miss_latency::total 50873.062382                       # average overall mshr miss latency
system.cpu.icache.overall_avg_mshr_miss_latency::cpu.inst 50873.062382                       # average overall mshr miss latency
system.cpu.icache.overall_avg_mshr_miss_latency::total 50873.062382                       # average overall mshr miss latency
system.cpu.icache.no_allocate_misses                0                       # Number of misses that were no-allocate
system.cpu.dcache.tags.replacements             16813                       # number of replacements
system.cpu.dcache.tags.tagsinuse                 1024                       # Cycle average of tags in use
system.cpu.dcache.tags.total_refs              292206                       # Total number of references to valid blocks.
system.cpu.dcache.tags.sampled_refs             17837                       # Sample count of references to valid blocks.
system.cpu.dcache.tags.avg_refs             16.382015                       # Average number of references to valid blocks.
system.cpu.dcache.tags.warmup_cycle                 0                       # Cycle when the warmup percentage was hit.
system.cpu.dcache.tags.occ_blocks::cpu.data         1024                       # Average occupied blocks per requestor
system.cpu.dcache.tags.occ_percent::cpu.data            1                       # Average percentage of cache occupancy
system.cpu.dcache.tags.occ_percent::total            1                       # Average percentage of cache occupancy
system.cpu.dcache.tags.occ_task_id_blocks::1024         1024                       # Occupied blocks per task id
system.cpu.dcache.tags.age_task_id_blocks_1024::0           39                       # Occupied blocks per task id
system.cpu.dcache.tags.age_task_id_blocks_1024::1          483                       # Occupied blocks per task id
system.cpu.dcache.tags.age_task_id_blocks_1024::2          484                       # Occupied blocks per task id
system.cpu.dcache.tags.age_task_id_blocks_1024::3           17                       # Occupied blocks per task id
system.cpu.dcache.tags.age_task_id_blocks_1024::4            1                       # Occupied blocks per task id
system.cpu.dcache.tags.occ_task_id_percent::1024            1                       # Percentage of cache occupancy per task id
system.cpu.dcache.tags.tag_accesses            570335                       # Number of tag accesses
system.cpu.dcache.tags.data_accesses           570335                       # Number of data accesses
system.cpu.dcache.ReadReq_hits::cpu.data       133717                       # number of ReadReq hits
system.cpu.dcache.ReadReq_hits::total          133717                       # number of ReadReq hits
system.cpu.dcache.WriteReq_hits::cpu.data       121478                       # number of WriteReq hits
system.cpu.dcache.WriteReq_hits::total         121478                       # number of WriteReq hits
system.cpu.dcache.LoadLockedReq_hits::cpu.data         2287                       # number of LoadLockedReq hits
system.cpu.dcache.LoadLockedReq_hits::total         2287                       # number of LoadLockedReq hits
system.cpu.dcache.StoreCondReq_hits::cpu.data         2465                       # number of StoreCondReq hits
system.cpu.dcache.StoreCondReq_hits::total         2465                       # number of StoreCondReq hits
system.cpu.dcache.demand_hits::cpu.data        255195                       # number of demand (read+write) hits
system.cpu.dcache.demand_hits::total           255195                       # number of demand (read+write) hits
system.cpu.dcache.overall_hits::cpu.data       255195                       # number of overall hits
system.cpu.dcache.overall_hits::total          255195                       # number of overall hits
system.cpu.dcache.ReadReq_misses::cpu.data         7613                       # number of ReadReq misses
system.cpu.dcache.ReadReq_misses::total          7613                       # number of ReadReq misses
system.cpu.dcache.WriteReq_misses::cpu.data         9015                       # number of WriteReq misses
system.cpu.dcache.WriteReq_misses::total         9015                       # number of WriteReq misses
system.cpu.dcache.LoadLockedReq_misses::cpu.data          186                       # number of LoadLockedReq misses
system.cpu.dcache.LoadLockedReq_misses::total          186                       # number of LoadLockedReq misses
system.cpu.dcache.demand_misses::cpu.data        16628                       # number of demand (read+write) misses
system.cpu.dcache.demand_misses::total          16628                       # number of demand (read+write) misses
system.cpu.dcache.overall_misses::cpu.data        16628                       # number of overall misses
system.cpu.dcache.overall_misses::total         16628                       # number of overall misses
system.cpu.dcache.ReadReq_miss_latency::cpu.data    444678250                       # number of ReadReq miss cycles
system.cpu.dcache.ReadReq_miss_latency::total    444678250                       # number of ReadReq miss cycles
system.cpu.dcache.WriteReq_miss_latency::cpu.data    477536999                       # number of WriteReq miss cycles
system.cpu.dcache.WriteReq_miss_latency::total    477536999                       # number of WriteReq miss cycles
system.cpu.dcache.LoadLockedReq_miss_latency::cpu.data     11425500                       # number of LoadLockedReq miss cycles
system.cpu.dcache.LoadLockedReq_miss_latency::total     11425500                       # number of LoadLockedReq miss cycles
system.cpu.dcache.demand_miss_latency::cpu.data    922215249                       # number of demand (read+write) miss cycles
system.cpu.dcache.demand_miss_latency::total    922215249                       # number of demand (read+write) miss cycles
system.cpu.dcache.overall_miss_latency::cpu.data    922215249                       # number of overall miss cycles
system.cpu.dcache.overall_miss_latency::total    922215249                       # number of overall miss cycles
system.cpu.dcache.ReadReq_accesses::cpu.data       141330                       # number of ReadReq accesses(hits+misses)
system.cpu.dcache.ReadReq_accesses::total       141330                       # number of ReadReq accesses(hits+misses)
system.cpu.dcache.WriteReq_accesses::cpu.data       130493                       # number of WriteReq accesses(hits+misses)
system.cpu.dcache.WriteReq_accesses::total       130493                       # number of WriteReq accesses(hits+misses)
system.cpu.dcache.LoadLockedReq_accesses::cpu.data         2473                       # number of LoadLockedReq accesses(hits+misses)
system.cpu.dcache.LoadLockedReq_accesses::total         2473                       # number of LoadLockedReq accesses(hits+misses)
system.cpu.dcache.StoreCondReq_accesses::cpu.data         2465                       # number of StoreCondReq accesses(hits+misses)
system.cpu.dcache.StoreCondReq_accesses::total         2465                       # number of StoreCondReq accesses(hits+misses)
system.cpu.dcache.demand_accesses::cpu.data       271823                       # number of demand (read+write) accesses
system.cpu.dcache.demand_accesses::total       271823                       # number of demand (read+write) accesses
system.cpu.dcache.overall_accesses::cpu.data       271823                       # number of overall (read+write) accesses
system.cpu.dcache.overall_accesses::total       271823                       # number of overall (read+write) accesses
system.cpu.dcache.ReadReq_miss_rate::cpu.data     0.053867                       # miss rate for ReadReq accesses
system.cpu.dcache.ReadReq_miss_rate::total     0.053867                       # miss rate for ReadReq accesses
system.cpu.dcache.WriteReq_miss_rate::cpu.data     0.069084                       # miss rate for WriteReq accesses
system.cpu.dcache.WriteReq_miss_rate::total     0.069084                       # miss rate for WriteReq accesses
system.cpu.dcache.LoadLockedReq_miss_rate::cpu.data     0.075212                       # miss rate for LoadLockedReq accesses
system.cpu.dcache.LoadLockedReq_miss_rate::total     0.075212                       # miss rate for LoadLockedReq accesses
system.cpu.dcache.demand_miss_rate::cpu.data     0.061172                       # miss rate for demand accesses
system.cpu.dcache.demand_miss_rate::total     0.061172                       # miss rate for demand accesses
system.cpu.dcache.overall_miss_rate::cpu.data     0.061172                       # miss rate for overall accesses
system.cpu.dcache.overall_miss_rate::total     0.061172                       # miss rate for overall accesses
system.cpu.dcache.ReadReq_avg_miss_latency::cpu.data 58410.383554                       # average ReadReq miss latency
system.cpu.dcache.ReadReq_avg_miss_latency::total 58410.383554                       # average ReadReq miss latency
system.cpu.dcache.WriteReq_avg_miss_latency::cpu.data 52971.380921                       # average WriteReq miss latency
system.cpu.dcache.WriteReq_avg_miss_latency::total 52971.380921                       # average WriteReq miss latency
system.cpu.dcache.LoadLockedReq_avg_miss_latency::cpu.data 61427.419355                       # average LoadLockedReq miss latency
system.cpu.dcache.LoadLockedReq_avg_miss_latency::total 61427.419355                       # average LoadLockedReq miss latency
system.cpu.dcache.demand_avg_miss_latency::cpu.data 55461.585819                       # average overall miss latency
system.cpu.dcache.demand_avg_miss_latency::total 55461.585819                       # average overall miss latency
system.cpu.dcache.overall_avg_miss_latency::cpu.data 55461.585819                       # average overall miss latency
system.cpu.dcache.overall_avg_miss_latency::total 55461.585819                       # average overall miss latency
system.cpu.dcache.blocked_cycles::no_mshrs            0                       # number of cycles access was blocked
system.cpu.dcache.blocked_cycles::no_targets            0                       # number of cycles access was blocked
system.cpu.dcache.blocked::no_mshrs                 0                       # number of cycles access was blocked
system.cpu.dcache.blocked::no_targets               0                       # number of cycles access was blocked
system.cpu.dcache.avg_blocked_cycles::no_mshrs          nan                       # average number of cycles each access was blocked
system.cpu.dcache.avg_blocked_cycles::no_targets          nan                       # average number of cycles each access was blocked
system.cpu.dcache.fast_writes                       0                       # number of fast writes performed
system.cpu.dcache.cache_copies                      0                       # number of cache copies performed
system.cpu.dcache.writebacks::writebacks        10343                       # number of writebacks
system.cpu.dcache.writebacks::total             10343                       # number of writebacks
system.cpu.dcache.ReadReq_mshr_misses::cpu.data         7613                       # number of ReadReq MSHR misses
system.cpu.dcache.ReadReq_mshr_misses::total         7613                       # number of ReadReq MSHR misses
system.cpu.dcache.WriteReq_mshr_misses::cpu.data         9015                       # number of WriteReq MSHR misses
system.cpu.dcache.WriteReq_mshr_misses::total         9015                       # number of WriteReq MSHR misses
system.cpu.dcache.LoadLockedReq_mshr_misses::cpu.data          186                       # number of LoadLockedReq MSHR misses
system.cpu.dcache.LoadLockedReq_mshr_misses::total          186                       # number of LoadLockedReq MSHR misses
system.cpu.dcache.demand_mshr_misses::cpu.data        16628                       # number of demand (read+write) MSHR misses
system.cpu.dcache.demand_mshr_misses::total        16628                       # number of demand (read+write) MSHR misses
system.cpu.dcache.overall_mshr_misses::cpu.data        16628                       # number of overall MSHR misses
system.cpu.dcache.overall_mshr_misses::total        16628                       # number of overall MSHR misses
system.cpu.dcache.ReadReq_mshr_miss_latency::cpu.data    408297750                       # number of ReadReq MSHR miss cycles
system.cpu.dcache.ReadReq_mshr_miss_latency::total    408297750                       # number of ReadReq MSHR miss cycles
system.cpu.dcache.WriteReq_mshr_miss_latency::cpu.data    436455001                       # number of WriteReq MSHR miss cycles
system.cpu.dcache.WriteReq_mshr_miss_latency::total    436455001                       # number of WriteReq MSHR miss cycles
system.cpu.dcache.LoadLockedReq_mshr_miss_latency::cpu.data     10492500                       # number of LoadLockedReq MSHR miss cycles
system.cpu.dcache.LoadLockedReq_mshr_miss_latency::total     10492500                       # number of LoadLockedReq MSHR miss cycles
system.cpu.dcache.demand_mshr_miss_latency::cpu.data    844752751                       # number of demand (read+write) MSHR miss cycles
system.cpu.dcache.demand_mshr_miss_latency::total    844752751                       # number of demand (read+write) MSHR miss cycles
system.cpu.dcache.overall_mshr_miss_latency::cpu.data    844752751                       # number of overall MSHR miss cycles
system.cpu.dcache.overall_mshr_miss_latency::total    844752751                       # number of overall MSHR miss cycles
system.cpu.dcache.WriteReq_mshr_uncacheable_latency::cpu.data       606000                       # number of WriteReq MSHR uncacheable cycles
system.cpu.dcache.WriteReq_mshr_uncacheable_latency::total       606000                       # number of WriteReq MSHR uncacheable cycles
system.cpu.dcache.overall_mshr_uncacheable_latency::cpu.data       606000                       # number of overall MSHR uncacheable cycles
system.cpu.dcache.overall_mshr_uncacheable_latency::total       606000                       # number of overall MSHR uncacheable cycles
system.cpu.dcache.ReadReq_mshr_miss_rate::cpu.data     0.053867                       # mshr miss rate for ReadReq accesses
system.cpu.dcache.ReadReq_mshr_miss_rate::total     0.053867                       # mshr miss rate for ReadReq accesses
system.cpu.dcache.WriteReq_mshr_miss_rate::cpu.data     0.069084                       # mshr miss rate for WriteReq accesses
system.cpu.dcache.WriteReq_mshr_miss_rate::total     0.069084                       # mshr miss rate for WriteReq accesses
system.cpu.dcache.LoadLockedReq_mshr_miss_rate::cpu.data     0.075212                       # mshr miss rate for LoadLockedReq accesses
system.cpu.dcache.LoadLockedReq_mshr_miss_rate::total     0.075212                       # mshr miss rate for LoadLockedReq accesses
system.cpu.dcache.demand_mshr_miss_rate::cpu.data     0.061172                       # mshr miss rate for demand accesses
system.cpu.dcache.demand_mshr_miss_rate::total     0.061172                       # mshr miss rate for demand accesses
system.cpu.dcache.overall_mshr_miss_rate::cpu.data     0.061172                       # mshr miss rate for overall accesses
system.cpu.dcache.overall_mshr_miss_rate::total     0.061172                       # mshr miss rate for overall accesses
system.cpu.dcache.ReadReq_avg_mshr_miss_latency::cpu.data 53631.649810                       # average ReadReq mshr miss latency
system.cpu.dcache.ReadReq_avg_mshr_miss_latency::total 53631.649810                       # average ReadReq mshr miss latency
system.cpu.dcache.WriteReq_avg_mshr_miss_latency::cpu.data 48414.309595                       # average WriteReq mshr miss latency
system.cpu.dcache.WriteReq_avg_mshr_miss_latency::total 48414.309595                       # average WriteReq mshr miss latency
system.cpu.dcache.LoadLockedReq_avg_mshr_miss_latency::cpu.data 56411.290323                       # average LoadLockedReq mshr miss latency
system.cpu.dcache.LoadLockedReq_avg_mshr_miss_latency::total 56411.290323                       # average LoadLockedReq mshr miss latency
system.cpu.dcache.demand_avg_mshr_miss_latency::cpu.data 50803.028085                       # average overall mshr miss latency
system.cpu.dcache.demand_avg_mshr_miss_latency::total 50803.028085                       # average overall mshr miss latency
system.cpu.dcache.overall_avg_mshr_miss_latency::cpu.data 50803.028085                       # average overall mshr miss latency
system.cpu.dcache.overall_avg_mshr_miss_latency::total 50803.028085                       # average overall mshr miss latency
system.cpu.dcache.WriteReq_avg_mshr_uncacheable_latency::cpu.data          inf                       # average WriteReq mshr uncacheable latency
system.cpu.dcache.WriteReq_avg_mshr_uncacheable_latency::total          inf                       # average WriteReq mshr uncacheable latency
system.cpu.dcache.overall_avg_mshr_uncacheable_latency::cpu.data          inf                       # average overall mshr uncacheable latency
system.cpu.dcache.overall_avg_mshr_uncacheable_latency::total          inf                       # average overall mshr uncacheable latency
system.cpu.dcache.no_allocate_misses                0                       # Number of misses that were no-allocate

---------- End Simulation Statistics   ----------
