
---------- Begin Simulation Statistics ----------
sim_seconds                                  2.621836                       # Number of seconds simulated
sim_ticks                                2621835532000                       # Number of ticks simulated
final_tick                               2621835532000                       # Number of ticks from beginning of simulation (restored from checkpoints and never reset)
sim_freq                                 1000000000000                       # Frequency of simulated ticks
host_inst_rate                                 758064                       # Simulator instruction rate (inst/s)
host_op_rate                                   758064                       # Simulator op (including micro ops) rate (op/s)
host_tick_rate                            17854862380                       # Simulator tick rate (ticks/s)
host_mem_usage                                 461036                       # Number of bytes of host memory used
host_seconds                                   146.84                       # Real time elapsed on the host
sim_insts                                   111315221                       # Number of instructions simulated
sim_ops                                     111315221                       # Number of ops (including micro ops) simulated
system.voltage_domain.voltage                       1                       # Voltage in Volts
system.clk_domain.clock                          1000                       # Clock period in ticks
system.mem_ctrls.bytes_read::cpu0.inst       37305600                       # Number of bytes read from this memory
system.mem_ctrls.bytes_read::cpu0.data      155698112                       # Number of bytes read from this memory
system.mem_ctrls.bytes_read::tsunami.ide        13312                       # Number of bytes read from this memory
system.mem_ctrls.bytes_read::cpu1.inst        3430336                       # Number of bytes read from this memory
system.mem_ctrls.bytes_read::cpu1.data        1975744                       # Number of bytes read from this memory
system.mem_ctrls.bytes_read::cpu2.inst       28520256                       # Number of bytes read from this memory
system.mem_ctrls.bytes_read::cpu2.data       14342016                       # Number of bytes read from this memory
system.mem_ctrls.bytes_read::cpu3.inst       19912256                       # Number of bytes read from this memory
system.mem_ctrls.bytes_read::cpu3.data        4449088                       # Number of bytes read from this memory
system.mem_ctrls.bytes_read::total          265646720                       # Number of bytes read from this memory
system.mem_ctrls.bytes_inst_read::cpu0.inst     37305600                       # Number of instructions bytes read from this memory
system.mem_ctrls.bytes_inst_read::cpu1.inst      3430336                       # Number of instructions bytes read from this memory
system.mem_ctrls.bytes_inst_read::cpu2.inst     28520256                       # Number of instructions bytes read from this memory
system.mem_ctrls.bytes_inst_read::cpu3.inst     19912256                       # Number of instructions bytes read from this memory
system.mem_ctrls.bytes_inst_read::total      89168448                       # Number of instructions bytes read from this memory
system.mem_ctrls.bytes_written::writebacks     29187200                       # Number of bytes written to this memory
system.mem_ctrls.bytes_written::tsunami.ide      2832384                       # Number of bytes written to this memory
system.mem_ctrls.bytes_written::total        32019584                       # Number of bytes written to this memory
system.mem_ctrls.num_reads::cpu0.inst          582900                       # Number of read requests responded to by this memory
system.mem_ctrls.num_reads::cpu0.data         2432783                       # Number of read requests responded to by this memory
system.mem_ctrls.num_reads::tsunami.ide           208                       # Number of read requests responded to by this memory
system.mem_ctrls.num_reads::cpu1.inst           53599                       # Number of read requests responded to by this memory
system.mem_ctrls.num_reads::cpu1.data           30871                       # Number of read requests responded to by this memory
system.mem_ctrls.num_reads::cpu2.inst          445629                       # Number of read requests responded to by this memory
system.mem_ctrls.num_reads::cpu2.data          224094                       # Number of read requests responded to by this memory
system.mem_ctrls.num_reads::cpu3.inst          311129                       # Number of read requests responded to by this memory
system.mem_ctrls.num_reads::cpu3.data           69517                       # Number of read requests responded to by this memory
system.mem_ctrls.num_reads::total             4150730                       # Number of read requests responded to by this memory
system.mem_ctrls.num_writes::writebacks        456050                       # Number of write requests responded to by this memory
system.mem_ctrls.num_writes::tsunami.ide        44256                       # Number of write requests responded to by this memory
system.mem_ctrls.num_writes::total             500306                       # Number of write requests responded to by this memory
system.mem_ctrls.bw_read::cpu0.inst          14228810                       # Total read bandwidth from this memory (bytes/s)
system.mem_ctrls.bw_read::cpu0.data          59385156                       # Total read bandwidth from this memory (bytes/s)
system.mem_ctrls.bw_read::tsunami.ide            5077                       # Total read bandwidth from this memory (bytes/s)
system.mem_ctrls.bw_read::cpu1.inst           1308372                       # Total read bandwidth from this memory (bytes/s)
system.mem_ctrls.bw_read::cpu1.data            753573                       # Total read bandwidth from this memory (bytes/s)
system.mem_ctrls.bw_read::cpu2.inst          10877973                       # Total read bandwidth from this memory (bytes/s)
system.mem_ctrls.bw_read::cpu2.data           5470220                       # Total read bandwidth from this memory (bytes/s)
system.mem_ctrls.bw_read::cpu3.inst           7594777                       # Total read bandwidth from this memory (bytes/s)
system.mem_ctrls.bw_read::cpu3.data           1696936                       # Total read bandwidth from this memory (bytes/s)
system.mem_ctrls.bw_read::total             101320894                       # Total read bandwidth from this memory (bytes/s)
system.mem_ctrls.bw_inst_read::cpu0.inst     14228810                       # Instruction read bandwidth from this memory (bytes/s)
system.mem_ctrls.bw_inst_read::cpu1.inst      1308372                       # Instruction read bandwidth from this memory (bytes/s)
system.mem_ctrls.bw_inst_read::cpu2.inst     10877973                       # Instruction read bandwidth from this memory (bytes/s)
system.mem_ctrls.bw_inst_read::cpu3.inst      7594777                       # Instruction read bandwidth from this memory (bytes/s)
system.mem_ctrls.bw_inst_read::total         34009932                       # Instruction read bandwidth from this memory (bytes/s)
system.mem_ctrls.bw_write::writebacks        11132354                       # Write bandwidth from this memory (bytes/s)
system.mem_ctrls.bw_write::tsunami.ide        1080306                       # Write bandwidth from this memory (bytes/s)
system.mem_ctrls.bw_write::total             12212659                       # Write bandwidth from this memory (bytes/s)
system.mem_ctrls.bw_total::writebacks        11132354                       # Total bandwidth to/from this memory (bytes/s)
system.mem_ctrls.bw_total::cpu0.inst         14228810                       # Total bandwidth to/from this memory (bytes/s)
system.mem_ctrls.bw_total::cpu0.data         59385156                       # Total bandwidth to/from this memory (bytes/s)
system.mem_ctrls.bw_total::tsunami.ide        1085383                       # Total bandwidth to/from this memory (bytes/s)
system.mem_ctrls.bw_total::cpu1.inst          1308372                       # Total bandwidth to/from this memory (bytes/s)
system.mem_ctrls.bw_total::cpu1.data           753573                       # Total bandwidth to/from this memory (bytes/s)
system.mem_ctrls.bw_total::cpu2.inst         10877973                       # Total bandwidth to/from this memory (bytes/s)
system.mem_ctrls.bw_total::cpu2.data          5470220                       # Total bandwidth to/from this memory (bytes/s)
system.mem_ctrls.bw_total::cpu3.inst          7594777                       # Total bandwidth to/from this memory (bytes/s)
system.mem_ctrls.bw_total::cpu3.data          1696936                       # Total bandwidth to/from this memory (bytes/s)
system.mem_ctrls.bw_total::total            113533553                       # Total bandwidth to/from this memory (bytes/s)
system.mem_ctrls.readReqs                     4150730                       # Number of read requests accepted
system.mem_ctrls.writeReqs                     500306                       # Number of write requests accepted
system.mem_ctrls.readBursts                   4150730                       # Number of DRAM read bursts, including those serviced by the write queue
system.mem_ctrls.writeBursts                   500306                       # Number of DRAM write bursts, including those merged in the write queue
system.mem_ctrls.bytesReadDRAM              263504128                       # Total number of bytes read from DRAM
system.mem_ctrls.bytesReadWrQ                 2142592                       # Total number of bytes read from write queue
system.mem_ctrls.bytesWritten                31793664                       # Total number of bytes written to DRAM
system.mem_ctrls.bytesReadSys               265646720                       # Total read bytes from the system interface side
system.mem_ctrls.bytesWrittenSys             32019584                       # Total written bytes from the system interface side
system.mem_ctrls.servicedByWrQ                  33478                       # Number of DRAM read bursts serviced by the write queue
system.mem_ctrls.mergedWrBursts                  3504                       # Number of DRAM write bursts merged with an existing one
system.mem_ctrls.neitherReadNorWriteReqs        31460                       # Number of requests that are neither read nor write
system.mem_ctrls.perBankRdBursts::0            272222                       # Per bank write bursts
system.mem_ctrls.perBankRdBursts::1            209046                       # Per bank write bursts
system.mem_ctrls.perBankRdBursts::2            204599                       # Per bank write bursts
system.mem_ctrls.perBankRdBursts::3            139549                       # Per bank write bursts
system.mem_ctrls.perBankRdBursts::4            160832                       # Per bank write bursts
system.mem_ctrls.perBankRdBursts::5            248947                       # Per bank write bursts
system.mem_ctrls.perBankRdBursts::6            208869                       # Per bank write bursts
system.mem_ctrls.perBankRdBursts::7            245913                       # Per bank write bursts
system.mem_ctrls.perBankRdBursts::8            375231                       # Per bank write bursts
system.mem_ctrls.perBankRdBursts::9            253805                       # Per bank write bursts
system.mem_ctrls.perBankRdBursts::10           242041                       # Per bank write bursts
system.mem_ctrls.perBankRdBursts::11           404833                       # Per bank write bursts
system.mem_ctrls.perBankRdBursts::12           289960                       # Per bank write bursts
system.mem_ctrls.perBankRdBursts::13           284956                       # Per bank write bursts
system.mem_ctrls.perBankRdBursts::14           351314                       # Per bank write bursts
system.mem_ctrls.perBankRdBursts::15           225135                       # Per bank write bursts
system.mem_ctrls.perBankWrBursts::0             27614                       # Per bank write bursts
system.mem_ctrls.perBankWrBursts::1             35765                       # Per bank write bursts
system.mem_ctrls.perBankWrBursts::2             26955                       # Per bank write bursts
system.mem_ctrls.perBankWrBursts::3             25466                       # Per bank write bursts
system.mem_ctrls.perBankWrBursts::4             23676                       # Per bank write bursts
system.mem_ctrls.perBankWrBursts::5             21805                       # Per bank write bursts
system.mem_ctrls.perBankWrBursts::6             26888                       # Per bank write bursts
system.mem_ctrls.perBankWrBursts::7             34345                       # Per bank write bursts
system.mem_ctrls.perBankWrBursts::8             23496                       # Per bank write bursts
system.mem_ctrls.perBankWrBursts::9             23977                       # Per bank write bursts
system.mem_ctrls.perBankWrBursts::10            27611                       # Per bank write bursts
system.mem_ctrls.perBankWrBursts::11            53220                       # Per bank write bursts
system.mem_ctrls.perBankWrBursts::12            27844                       # Per bank write bursts
system.mem_ctrls.perBankWrBursts::13            22758                       # Per bank write bursts
system.mem_ctrls.perBankWrBursts::14            27999                       # Per bank write bursts
system.mem_ctrls.perBankWrBursts::15            67357                       # Per bank write bursts
system.mem_ctrls.numRdRetry                         0                       # Number of times read queue was full causing retry
system.mem_ctrls.numWrRetry                        22                       # Number of times write queue was full causing retry
system.mem_ctrls.totGap                  2621835486000                       # Total gap between requests
system.mem_ctrls.readPktSize::0                     0                       # Read request sizes (log2)
system.mem_ctrls.readPktSize::1                     0                       # Read request sizes (log2)
system.mem_ctrls.readPktSize::2                     0                       # Read request sizes (log2)
system.mem_ctrls.readPktSize::3                     0                       # Read request sizes (log2)
system.mem_ctrls.readPktSize::4                     0                       # Read request sizes (log2)
system.mem_ctrls.readPktSize::5                     0                       # Read request sizes (log2)
system.mem_ctrls.readPktSize::6               4150730                       # Read request sizes (log2)
system.mem_ctrls.writePktSize::0                    0                       # Write request sizes (log2)
system.mem_ctrls.writePktSize::1                    0                       # Write request sizes (log2)
system.mem_ctrls.writePktSize::2                    0                       # Write request sizes (log2)
system.mem_ctrls.writePktSize::3                    0                       # Write request sizes (log2)
system.mem_ctrls.writePktSize::4                    0                       # Write request sizes (log2)
system.mem_ctrls.writePktSize::5                    0                       # Write request sizes (log2)
system.mem_ctrls.writePktSize::6               500306                       # Write request sizes (log2)
system.mem_ctrls.rdQLenPdf::0                 3892919                       # What read queue length does an incoming req see
system.mem_ctrls.rdQLenPdf::1                  192880                       # What read queue length does an incoming req see
system.mem_ctrls.rdQLenPdf::2                   24996                       # What read queue length does an incoming req see
system.mem_ctrls.rdQLenPdf::3                    6420                       # What read queue length does an incoming req see
system.mem_ctrls.rdQLenPdf::4                       6                       # What read queue length does an incoming req see
system.mem_ctrls.rdQLenPdf::5                       9                       # What read queue length does an incoming req see
system.mem_ctrls.rdQLenPdf::6                       5                       # What read queue length does an incoming req see
system.mem_ctrls.rdQLenPdf::7                       3                       # What read queue length does an incoming req see
system.mem_ctrls.rdQLenPdf::8                       2                       # What read queue length does an incoming req see
system.mem_ctrls.rdQLenPdf::9                       1                       # What read queue length does an incoming req see
system.mem_ctrls.rdQLenPdf::10                      1                       # What read queue length does an incoming req see
system.mem_ctrls.rdQLenPdf::11                      1                       # What read queue length does an incoming req see
system.mem_ctrls.rdQLenPdf::12                      1                       # What read queue length does an incoming req see
system.mem_ctrls.rdQLenPdf::13                      1                       # What read queue length does an incoming req see
system.mem_ctrls.rdQLenPdf::14                      1                       # What read queue length does an incoming req see
system.mem_ctrls.rdQLenPdf::15                      2                       # What read queue length does an incoming req see
system.mem_ctrls.rdQLenPdf::16                      1                       # What read queue length does an incoming req see
system.mem_ctrls.rdQLenPdf::17                      1                       # What read queue length does an incoming req see
system.mem_ctrls.rdQLenPdf::18                      1                       # What read queue length does an incoming req see
system.mem_ctrls.rdQLenPdf::19                      1                       # What read queue length does an incoming req see
system.mem_ctrls.rdQLenPdf::20                      0                       # What read queue length does an incoming req see
system.mem_ctrls.rdQLenPdf::21                      0                       # What read queue length does an incoming req see
system.mem_ctrls.rdQLenPdf::22                      0                       # What read queue length does an incoming req see
system.mem_ctrls.rdQLenPdf::23                      0                       # What read queue length does an incoming req see
system.mem_ctrls.rdQLenPdf::24                      0                       # What read queue length does an incoming req see
system.mem_ctrls.rdQLenPdf::25                      0                       # What read queue length does an incoming req see
system.mem_ctrls.rdQLenPdf::26                      0                       # What read queue length does an incoming req see
system.mem_ctrls.rdQLenPdf::27                      0                       # What read queue length does an incoming req see
system.mem_ctrls.rdQLenPdf::28                      0                       # What read queue length does an incoming req see
system.mem_ctrls.rdQLenPdf::29                      0                       # What read queue length does an incoming req see
system.mem_ctrls.rdQLenPdf::30                      0                       # What read queue length does an incoming req see
system.mem_ctrls.rdQLenPdf::31                      0                       # What read queue length does an incoming req see
system.mem_ctrls.wrQLenPdf::0                       1                       # What write queue length does an incoming req see
system.mem_ctrls.wrQLenPdf::1                       1                       # What write queue length does an incoming req see
system.mem_ctrls.wrQLenPdf::2                       1                       # What write queue length does an incoming req see
system.mem_ctrls.wrQLenPdf::3                       1                       # What write queue length does an incoming req see
system.mem_ctrls.wrQLenPdf::4                       1                       # What write queue length does an incoming req see
system.mem_ctrls.wrQLenPdf::5                       1                       # What write queue length does an incoming req see
system.mem_ctrls.wrQLenPdf::6                       1                       # What write queue length does an incoming req see
system.mem_ctrls.wrQLenPdf::7                       1                       # What write queue length does an incoming req see
system.mem_ctrls.wrQLenPdf::8                       1                       # What write queue length does an incoming req see
system.mem_ctrls.wrQLenPdf::9                       1                       # What write queue length does an incoming req see
system.mem_ctrls.wrQLenPdf::10                      1                       # What write queue length does an incoming req see
system.mem_ctrls.wrQLenPdf::11                      1                       # What write queue length does an incoming req see
system.mem_ctrls.wrQLenPdf::12                      1                       # What write queue length does an incoming req see
system.mem_ctrls.wrQLenPdf::13                      1                       # What write queue length does an incoming req see
system.mem_ctrls.wrQLenPdf::14                      1                       # What write queue length does an incoming req see
system.mem_ctrls.wrQLenPdf::15                   9515                       # What write queue length does an incoming req see
system.mem_ctrls.wrQLenPdf::16                  10172                       # What write queue length does an incoming req see
system.mem_ctrls.wrQLenPdf::17                  26646                       # What write queue length does an incoming req see
system.mem_ctrls.wrQLenPdf::18                  27237                       # What write queue length does an incoming req see
system.mem_ctrls.wrQLenPdf::19                  27390                       # What write queue length does an incoming req see
system.mem_ctrls.wrQLenPdf::20                  27749                       # What write queue length does an incoming req see
system.mem_ctrls.wrQLenPdf::21                  27761                       # What write queue length does an incoming req see
system.mem_ctrls.wrQLenPdf::22                  28544                       # What write queue length does an incoming req see
system.mem_ctrls.wrQLenPdf::23                  29170                       # What write queue length does an incoming req see
system.mem_ctrls.wrQLenPdf::24                  29829                       # What write queue length does an incoming req see
system.mem_ctrls.wrQLenPdf::25                  30021                       # What write queue length does an incoming req see
system.mem_ctrls.wrQLenPdf::26                  29741                       # What write queue length does an incoming req see
system.mem_ctrls.wrQLenPdf::27                  29759                       # What write queue length does an incoming req see
system.mem_ctrls.wrQLenPdf::28                  30512                       # What write queue length does an incoming req see
system.mem_ctrls.wrQLenPdf::29                  30418                       # What write queue length does an incoming req see
system.mem_ctrls.wrQLenPdf::30                  30559                       # What write queue length does an incoming req see
system.mem_ctrls.wrQLenPdf::31                  30546                       # What write queue length does an incoming req see
system.mem_ctrls.wrQLenPdf::32                  30446                       # What write queue length does an incoming req see
system.mem_ctrls.wrQLenPdf::33                   1373                       # What write queue length does an incoming req see
system.mem_ctrls.wrQLenPdf::34                   1110                       # What write queue length does an incoming req see
system.mem_ctrls.wrQLenPdf::35                    934                       # What write queue length does an incoming req see
system.mem_ctrls.wrQLenPdf::36                    751                       # What write queue length does an incoming req see
system.mem_ctrls.wrQLenPdf::37                    563                       # What write queue length does an incoming req see
system.mem_ctrls.wrQLenPdf::38                    504                       # What write queue length does an incoming req see
system.mem_ctrls.wrQLenPdf::39                    450                       # What write queue length does an incoming req see
system.mem_ctrls.wrQLenPdf::40                    384                       # What write queue length does an incoming req see
system.mem_ctrls.wrQLenPdf::41                    314                       # What write queue length does an incoming req see
system.mem_ctrls.wrQLenPdf::42                    303                       # What write queue length does an incoming req see
system.mem_ctrls.wrQLenPdf::43                    271                       # What write queue length does an incoming req see
system.mem_ctrls.wrQLenPdf::44                    274                       # What write queue length does an incoming req see
system.mem_ctrls.wrQLenPdf::45                    249                       # What write queue length does an incoming req see
system.mem_ctrls.wrQLenPdf::46                    251                       # What write queue length does an incoming req see
system.mem_ctrls.wrQLenPdf::47                    242                       # What write queue length does an incoming req see
system.mem_ctrls.wrQLenPdf::48                    231                       # What write queue length does an incoming req see
system.mem_ctrls.wrQLenPdf::49                    246                       # What write queue length does an incoming req see
system.mem_ctrls.wrQLenPdf::50                    241                       # What write queue length does an incoming req see
system.mem_ctrls.wrQLenPdf::51                    251                       # What write queue length does an incoming req see
system.mem_ctrls.wrQLenPdf::52                    223                       # What write queue length does an incoming req see
system.mem_ctrls.wrQLenPdf::53                    213                       # What write queue length does an incoming req see
system.mem_ctrls.wrQLenPdf::54                    192                       # What write queue length does an incoming req see
system.mem_ctrls.wrQLenPdf::55                    182                       # What write queue length does an incoming req see
system.mem_ctrls.wrQLenPdf::56                    175                       # What write queue length does an incoming req see
system.mem_ctrls.wrQLenPdf::57                    174                       # What write queue length does an incoming req see
system.mem_ctrls.wrQLenPdf::58                    177                       # What write queue length does an incoming req see
system.mem_ctrls.wrQLenPdf::59                    163                       # What write queue length does an incoming req see
system.mem_ctrls.wrQLenPdf::60                    125                       # What write queue length does an incoming req see
system.mem_ctrls.wrQLenPdf::61                     92                       # What write queue length does an incoming req see
system.mem_ctrls.wrQLenPdf::62                     55                       # What write queue length does an incoming req see
system.mem_ctrls.wrQLenPdf::63                     59                       # What write queue length does an incoming req see
system.mem_ctrls.bytesPerActivate::samples      1089255                       # Bytes accessed per row activation
system.mem_ctrls.bytesPerActivate::mean    271.099465                       # Bytes accessed per row activation
system.mem_ctrls.bytesPerActivate::gmean   159.132998                       # Bytes accessed per row activation
system.mem_ctrls.bytesPerActivate::stdev   310.445493                       # Bytes accessed per row activation
system.mem_ctrls.bytesPerActivate::0-127       463234     42.53%     42.53% # Bytes accessed per row activation
system.mem_ctrls.bytesPerActivate::128-255       271234     24.90%     67.43% # Bytes accessed per row activation
system.mem_ctrls.bytesPerActivate::256-383        98214      9.02%     76.45% # Bytes accessed per row activation
system.mem_ctrls.bytesPerActivate::384-511        57137      5.25%     81.69% # Bytes accessed per row activation
system.mem_ctrls.bytesPerActivate::512-639        39039      3.58%     85.27% # Bytes accessed per row activation
system.mem_ctrls.bytesPerActivate::640-767        20117      1.85%     87.12% # Bytes accessed per row activation
system.mem_ctrls.bytesPerActivate::768-895        15297      1.40%     88.53% # Bytes accessed per row activation
system.mem_ctrls.bytesPerActivate::896-1023        11516      1.06%     89.58% # Bytes accessed per row activation
system.mem_ctrls.bytesPerActivate::1024-1151       113467     10.42%    100.00% # Bytes accessed per row activation
system.mem_ctrls.bytesPerActivate::total      1089255                       # Bytes accessed per row activation
system.mem_ctrls.rdPerTurnAround::samples        29468                       # Reads before turning the bus around for writes
system.mem_ctrls.rdPerTurnAround::mean     139.718406                       # Reads before turning the bus around for writes
system.mem_ctrls.rdPerTurnAround::stdev   6012.783492                       # Reads before turning the bus around for writes
system.mem_ctrls.rdPerTurnAround::0-32767        29467    100.00%    100.00% # Reads before turning the bus around for writes
system.mem_ctrls.rdPerTurnAround::1.01581e+06-1.04858e+06            1      0.00%    100.00% # Reads before turning the bus around for writes
system.mem_ctrls.rdPerTurnAround::total         29468                       # Reads before turning the bus around for writes
system.mem_ctrls.wrPerTurnAround::samples        29468                       # Writes before turning the bus around for reads
system.mem_ctrls.wrPerTurnAround::mean      16.858151                       # Writes before turning the bus around for reads
system.mem_ctrls.wrPerTurnAround::gmean     16.784313                       # Writes before turning the bus around for reads
system.mem_ctrls.wrPerTurnAround::stdev      2.155705                       # Writes before turning the bus around for reads
system.mem_ctrls.wrPerTurnAround::16-17         19382     65.77%     65.77% # Writes before turning the bus around for reads
system.mem_ctrls.wrPerTurnAround::18-19          9621     32.65%     98.42% # Writes before turning the bus around for reads
system.mem_ctrls.wrPerTurnAround::20-21           194      0.66%     99.08% # Writes before turning the bus around for reads
system.mem_ctrls.wrPerTurnAround::22-23            71      0.24%     99.32% # Writes before turning the bus around for reads
system.mem_ctrls.wrPerTurnAround::24-25            62      0.21%     99.53% # Writes before turning the bus around for reads
system.mem_ctrls.wrPerTurnAround::26-27            36      0.12%     99.65% # Writes before turning the bus around for reads
system.mem_ctrls.wrPerTurnAround::28-29            15      0.05%     99.70% # Writes before turning the bus around for reads
system.mem_ctrls.wrPerTurnAround::30-31            25      0.08%     99.79% # Writes before turning the bus around for reads
system.mem_ctrls.wrPerTurnAround::32-33            17      0.06%     99.85% # Writes before turning the bus around for reads
system.mem_ctrls.wrPerTurnAround::34-35             5      0.02%     99.86% # Writes before turning the bus around for reads
system.mem_ctrls.wrPerTurnAround::36-37             1      0.00%     99.87% # Writes before turning the bus around for reads
system.mem_ctrls.wrPerTurnAround::38-39             6      0.02%     99.89% # Writes before turning the bus around for reads
system.mem_ctrls.wrPerTurnAround::40-41             6      0.02%     99.91% # Writes before turning the bus around for reads
system.mem_ctrls.wrPerTurnAround::42-43             1      0.00%     99.91% # Writes before turning the bus around for reads
system.mem_ctrls.wrPerTurnAround::44-45             1      0.00%     99.92% # Writes before turning the bus around for reads
system.mem_ctrls.wrPerTurnAround::48-49             2      0.01%     99.92% # Writes before turning the bus around for reads
system.mem_ctrls.wrPerTurnAround::50-51             4      0.01%     99.94% # Writes before turning the bus around for reads
system.mem_ctrls.wrPerTurnAround::52-53             2      0.01%     99.94% # Writes before turning the bus around for reads
system.mem_ctrls.wrPerTurnAround::54-55             1      0.00%     99.95% # Writes before turning the bus around for reads
system.mem_ctrls.wrPerTurnAround::56-57             1      0.00%     99.95% # Writes before turning the bus around for reads
system.mem_ctrls.wrPerTurnAround::58-59             2      0.01%     99.96% # Writes before turning the bus around for reads
system.mem_ctrls.wrPerTurnAround::60-61             2      0.01%     99.96% # Writes before turning the bus around for reads
system.mem_ctrls.wrPerTurnAround::64-65             1      0.00%     99.97% # Writes before turning the bus around for reads
system.mem_ctrls.wrPerTurnAround::66-67             2      0.01%     99.97% # Writes before turning the bus around for reads
system.mem_ctrls.wrPerTurnAround::68-69             1      0.00%     99.98% # Writes before turning the bus around for reads
system.mem_ctrls.wrPerTurnAround::70-71             1      0.00%     99.98% # Writes before turning the bus around for reads
system.mem_ctrls.wrPerTurnAround::72-73             1      0.00%     99.98% # Writes before turning the bus around for reads
system.mem_ctrls.wrPerTurnAround::84-85             1      0.00%     99.99% # Writes before turning the bus around for reads
system.mem_ctrls.wrPerTurnAround::96-97             1      0.00%     99.99% # Writes before turning the bus around for reads
system.mem_ctrls.wrPerTurnAround::98-99             1      0.00%     99.99% # Writes before turning the bus around for reads
system.mem_ctrls.wrPerTurnAround::122-123            1      0.00%    100.00% # Writes before turning the bus around for reads
system.mem_ctrls.wrPerTurnAround::126-127            1      0.00%    100.00% # Writes before turning the bus around for reads
system.mem_ctrls.wrPerTurnAround::total         29468                       # Writes before turning the bus around for reads
system.mem_ctrls.totQLat                  33329778043                       # Total ticks spent queuing
system.mem_ctrls.totMemAccLat            110528253043                       # Total ticks spent from burst creation until serviced by the DRAM
system.mem_ctrls.totBusLat                20586260000                       # Total ticks spent in databus transfers
system.mem_ctrls.avgQLat                      8095.15                       # Average queueing delay per DRAM burst
system.mem_ctrls.avgBusLat                    5000.00                       # Average bus latency per DRAM burst
system.mem_ctrls.avgMemAccLat                26845.15                       # Average memory access latency per DRAM burst
system.mem_ctrls.avgRdBW                       100.50                       # Average DRAM read bandwidth in MiByte/s
system.mem_ctrls.avgWrBW                        12.13                       # Average achieved write bandwidth in MiByte/s
system.mem_ctrls.avgRdBWSys                    101.32                       # Average system read bandwidth in MiByte/s
system.mem_ctrls.avgWrBWSys                     12.21                       # Average system write bandwidth in MiByte/s
system.mem_ctrls.peakBW                      12800.00                       # Theoretical peak bandwidth in MiByte/s
system.mem_ctrls.busUtil                         0.88                       # Data bus utilization in percentage
system.mem_ctrls.busUtilRead                     0.79                       # Data bus utilization in percentage for reads
system.mem_ctrls.busUtilWrite                    0.09                       # Data bus utilization in percentage for writes
system.mem_ctrls.avgRdQLen                       1.97                       # Average read queue length when enqueuing
system.mem_ctrls.avgWrQLen                      24.89                       # Average write queue length when enqueuing
system.mem_ctrls.readRowHits                  3184288                       # Number of row buffer hits during reads
system.mem_ctrls.writeRowHits                  340481                       # Number of row buffer hits during writes
system.mem_ctrls.readRowHitRate                 77.34                       # Row buffer hit rate for reads
system.mem_ctrls.writeRowHitRate                68.53                       # Row buffer hit rate for writes
system.mem_ctrls.avgGap                     563710.00                       # Average gap between requests
system.mem_ctrls.pageHitRate                    76.39                       # Row buffer hit rate, read and write combined
system.mem_ctrls.memoryStateTime::IDLE   2124503607000                       # Time in different power states
system.mem_ctrls.memoryStateTime::REF     87548760000                       # Time in different power states
system.mem_ctrls.memoryStateTime::PRE_PDN            0                       # Time in different power states
system.mem_ctrls.memoryStateTime::ACT    409780724250                       # Time in different power states
system.mem_ctrls.memoryStateTime::ACT_PDN            0                       # Time in different power states
system.mem_ctrls.actEnergy::0              3167118360                       # Energy for activate commands per rank (pJ)
system.mem_ctrls.actEnergy::1              5067634320                       # Energy for activate commands per rank (pJ)
system.mem_ctrls.preEnergy::0              1728090375                       # Energy for precharge commands per rank (pJ)
system.mem_ctrls.preEnergy::1              2765078250                       # Energy for precharge commands per rank (pJ)
system.mem_ctrls.readEnergy::0            13181727000                       # Energy for read commands per rank (pJ)
system.mem_ctrls.readEnergy::1            18932659200                       # Energy for read commands per rank (pJ)
system.mem_ctrls.writeEnergy::0            1441890720                       # Energy for write commands per rank (pJ)
system.mem_ctrls.writeEnergy::1            1777217760                       # Energy for write commands per rank (pJ)
system.mem_ctrls.refreshEnergy::0        171245374560                       # Energy for refresh commands per rank (pJ)
system.mem_ctrls.refreshEnergy::1        171245374560                       # Energy for refresh commands per rank (pJ)
system.mem_ctrls.actBackEnergy::0        274426548165                       # Energy for active background per rank (pJ)
system.mem_ctrls.actBackEnergy::1        301845128490                       # Energy for active background per rank (pJ)
system.mem_ctrls.preBackEnergy::0        1332374804250                       # Energy for precharge background per rank (pJ)
system.mem_ctrls.preBackEnergy::1        1308323418000                       # Energy for precharge background per rank (pJ)
system.mem_ctrls.totalEnergy::0          1797565553430                       # Total energy per rank (pJ)
system.mem_ctrls.totalEnergy::1          1809956510580                       # Total energy per rank (pJ)
system.mem_ctrls.averagePower::0           685.614034                       # Core power per rank (mW)
system.mem_ctrls.averagePower::1           690.340101                       # Core power per rank (mW)
system.membus.trans_dist::ReadReq             4002491                       # Transaction distribution
system.membus.trans_dist::ReadResp            4002491                       # Transaction distribution
system.membus.trans_dist::WriteReq              25544                       # Transaction distribution
system.membus.trans_dist::WriteResp             25544                       # Transaction distribution
system.membus.trans_dist::Writeback            456050                       # Transaction distribution
system.membus.trans_dist::WriteInvalidateReq        44256                       # Transaction distribution
system.membus.trans_dist::WriteInvalidateResp        44256                       # Transaction distribution
system.membus.trans_dist::UpgradeReq            85933                       # Transaction distribution
system.membus.trans_dist::SCUpgradeReq          54407                       # Transaction distribution
system.membus.trans_dist::UpgradeResp          140340                       # Transaction distribution
system.membus.trans_dist::SCUpgradeFailReq           21                       # Transaction distribution
system.membus.trans_dist::UpgradeFailResp           21                       # Transaction distribution
system.membus.trans_dist::ReadExReq            370154                       # Transaction distribution
system.membus.trans_dist::ReadExResp           370154                       # Transaction distribution
system.membus.pkt_count_system.iocache.mem_side::system.mem_ctrls.port        88929                       # Packet count per connected master and slave (bytes)
system.membus.pkt_count_system.iocache.mem_side::total        88929                       # Packet count per connected master and slave (bytes)
system.membus.pkt_count_system.cpu0.icache.mem_side::system.mem_ctrls.port      1165804                       # Packet count per connected master and slave (bytes)
system.membus.pkt_count_system.cpu0.icache.mem_side::total      1165804                       # Packet count per connected master and slave (bytes)
system.membus.pkt_count_system.cpu0.dcache.mem_side::system.bridge.slave        31540                       # Packet count per connected master and slave (bytes)
system.membus.pkt_count_system.cpu0.dcache.mem_side::system.mem_ctrls.port      5235585                       # Packet count per connected master and slave (bytes)
system.membus.pkt_count_system.cpu0.dcache.mem_side::total      5267125                       # Packet count per connected master and slave (bytes)
system.membus.pkt_count_system.cpu1.icache.mem_side::system.mem_ctrls.port       107218                       # Packet count per connected master and slave (bytes)
system.membus.pkt_count_system.cpu1.icache.mem_side::total       107218                       # Packet count per connected master and slave (bytes)
system.membus.pkt_count_system.cpu1.dcache.mem_side::system.bridge.slave         6110                       # Packet count per connected master and slave (bytes)
system.membus.pkt_count_system.cpu1.dcache.mem_side::system.mem_ctrls.port        98062                       # Packet count per connected master and slave (bytes)
system.membus.pkt_count_system.cpu1.dcache.mem_side::total       104172                       # Packet count per connected master and slave (bytes)
system.membus.pkt_count_system.cpu2.icache.mem_side::system.mem_ctrls.port       891293                       # Packet count per connected master and slave (bytes)
system.membus.pkt_count_system.cpu2.icache.mem_side::total       891293                       # Packet count per connected master and slave (bytes)
system.membus.pkt_count_system.cpu2.dcache.mem_side::system.bridge.slave        19882                       # Packet count per connected master and slave (bytes)
system.membus.pkt_count_system.cpu2.dcache.mem_side::system.mem_ctrls.port       669265                       # Packet count per connected master and slave (bytes)
system.membus.pkt_count_system.cpu2.dcache.mem_side::total       689147                       # Packet count per connected master and slave (bytes)
system.membus.pkt_count_system.cpu3.icache.mem_side::system.mem_ctrls.port       622263                       # Packet count per connected master and slave (bytes)
system.membus.pkt_count_system.cpu3.icache.mem_side::total       622263                       # Packet count per connected master and slave (bytes)
system.membus.pkt_count_system.cpu3.dcache.mem_side::system.bridge.slave         8512                       # Packet count per connected master and slave (bytes)
system.membus.pkt_count_system.cpu3.dcache.mem_side::system.mem_ctrls.port       353861                       # Packet count per connected master and slave (bytes)
system.membus.pkt_count_system.cpu3.dcache.mem_side::total       362373                       # Packet count per connected master and slave (bytes)
system.membus.pkt_count::total                9298324                       # Packet count per connected master and slave (bytes)
system.membus.pkt_size_system.iocache.mem_side::system.mem_ctrls.port      2845696                       # Cumulative packet size per connected master and slave (bytes)
system.membus.pkt_size_system.iocache.mem_side::total      2845696                       # Cumulative packet size per connected master and slave (bytes)
system.membus.pkt_size_system.cpu0.icache.mem_side::system.mem_ctrls.port     37305600                       # Cumulative packet size per connected master and slave (bytes)
system.membus.pkt_size_system.cpu0.icache.mem_side::total     37305600                       # Cumulative packet size per connected master and slave (bytes)
system.membus.pkt_size_system.cpu0.dcache.mem_side::system.bridge.slave        56458                       # Cumulative packet size per connected master and slave (bytes)
system.membus.pkt_size_system.cpu0.dcache.mem_side::system.mem_ctrls.port    173534080                       # Cumulative packet size per connected master and slave (bytes)
system.membus.pkt_size_system.cpu0.dcache.mem_side::total    173590538                       # Cumulative packet size per connected master and slave (bytes)
system.membus.pkt_size_system.cpu1.icache.mem_side::system.mem_ctrls.port      3430336                       # Cumulative packet size per connected master and slave (bytes)
system.membus.pkt_size_system.cpu1.icache.mem_side::total      3430336                       # Cumulative packet size per connected master and slave (bytes)
system.membus.pkt_size_system.cpu1.dcache.mem_side::system.bridge.slave        24195                       # Cumulative packet size per connected master and slave (bytes)
system.membus.pkt_size_system.cpu1.dcache.mem_side::system.mem_ctrls.port      2932480                       # Cumulative packet size per connected master and slave (bytes)
system.membus.pkt_size_system.cpu1.dcache.mem_side::total      2956675                       # Cumulative packet size per connected master and slave (bytes)
system.membus.pkt_size_system.cpu2.icache.mem_side::system.mem_ctrls.port     28520256                       # Cumulative packet size per connected master and slave (bytes)
system.membus.pkt_size_system.cpu2.icache.mem_side::total     28520256                       # Cumulative packet size per connected master and slave (bytes)
system.membus.pkt_size_system.cpu2.dcache.mem_side::system.bridge.slave        53736                       # Cumulative packet size per connected master and slave (bytes)
system.membus.pkt_size_system.cpu2.dcache.mem_side::system.mem_ctrls.port     20152384                       # Cumulative packet size per connected master and slave (bytes)
system.membus.pkt_size_system.cpu2.dcache.mem_side::total     20206120                       # Cumulative packet size per connected master and slave (bytes)
system.membus.pkt_size_system.cpu3.icache.mem_side::system.mem_ctrls.port     19912256                       # Cumulative packet size per connected master and slave (bytes)
system.membus.pkt_size_system.cpu3.icache.mem_side::total     19912256                       # Cumulative packet size per connected master and slave (bytes)
system.membus.pkt_size_system.cpu3.dcache.mem_side::system.bridge.slave        33468                       # Cumulative packet size per connected master and slave (bytes)
system.membus.pkt_size_system.cpu3.dcache.mem_side::system.mem_ctrls.port      9033216                       # Cumulative packet size per connected master and slave (bytes)
system.membus.pkt_size_system.cpu3.dcache.mem_side::total      9066684                       # Cumulative packet size per connected master and slave (bytes)
system.membus.pkt_size::total               297834161                       # Cumulative packet size per connected master and slave (bytes)
system.membus.snoops                           323338                       # Total snoops (count)
system.membus.snoop_fanout::samples           5005856                       # Request fanout histogram
system.membus.snoop_fanout::mean                    8                       # Request fanout histogram
system.membus.snoop_fanout::stdev                   0                       # Request fanout histogram
system.membus.snoop_fanout::underflows              0      0.00%      0.00% # Request fanout histogram
system.membus.snoop_fanout::0                       0      0.00%      0.00% # Request fanout histogram
system.membus.snoop_fanout::1                       0      0.00%      0.00% # Request fanout histogram
system.membus.snoop_fanout::2                       0      0.00%      0.00% # Request fanout histogram
system.membus.snoop_fanout::3                       0      0.00%      0.00% # Request fanout histogram
system.membus.snoop_fanout::4                       0      0.00%      0.00% # Request fanout histogram
system.membus.snoop_fanout::5                       0      0.00%      0.00% # Request fanout histogram
system.membus.snoop_fanout::6                       0      0.00%      0.00% # Request fanout histogram
system.membus.snoop_fanout::7                       0      0.00%      0.00% # Request fanout histogram
system.membus.snoop_fanout::8                 5005856    100.00%    100.00% # Request fanout histogram
system.membus.snoop_fanout::9                       0      0.00%    100.00% # Request fanout histogram
system.membus.snoop_fanout::overflows               0      0.00%    100.00% # Request fanout histogram
system.membus.snoop_fanout::min_value               8                       # Request fanout histogram
system.membus.snoop_fanout::max_value               8                       # Request fanout histogram
system.membus.snoop_fanout::total             5005856                       # Request fanout histogram
system.membus.reqLayer0.occupancy            58566000                       # Layer occupancy (ticks)
system.membus.reqLayer0.utilization               0.0                       # Layer utilization (%)
system.membus.reqLayer1.occupancy          9008781531                       # Layer occupancy (ticks)
system.membus.reqLayer1.utilization               0.3                       # Layer utilization (%)
system.membus.respLayer1.occupancy           46204717                       # Layer occupancy (ticks)
system.membus.respLayer1.utilization              0.0                       # Layer utilization (%)
system.membus.respLayer2.occupancy         5456945237                       # Layer occupancy (ticks)
system.membus.respLayer2.utilization              0.2                       # Layer utilization (%)
system.membus.respLayer3.occupancy        23107935222                       # Layer occupancy (ticks)
system.membus.respLayer3.utilization              0.9                       # Layer utilization (%)
system.membus.respLayer4.occupancy          503118249                       # Layer occupancy (ticks)
system.membus.respLayer4.utilization              0.0                       # Layer utilization (%)
system.membus.respLayer5.occupancy          408286300                       # Layer occupancy (ticks)
system.membus.respLayer5.utilization              0.0                       # Layer utilization (%)
system.membus.respLayer6.occupancy         4175775741                       # Layer occupancy (ticks)
system.membus.respLayer6.utilization              0.2                       # Layer utilization (%)
system.membus.respLayer7.occupancy         2789936397                       # Layer occupancy (ticks)
system.membus.respLayer7.utilization              0.1                       # Layer utilization (%)
system.membus.respLayer8.occupancy         2916040231                       # Layer occupancy (ticks)
system.membus.respLayer8.utilization              0.1                       # Layer utilization (%)
system.membus.respLayer9.occupancy         1507119194                       # Layer occupancy (ticks)
system.membus.respLayer9.utilization              0.1                       # Layer utilization (%)
system.iocache.tags.replacements                44449                       # number of replacements
system.iocache.tags.tagsinuse                0.400809                       # Cycle average of tags in use
system.iocache.tags.total_refs                      0                       # Total number of references to valid blocks.
system.iocache.tags.sampled_refs                44449                       # Sample count of references to valid blocks.
system.iocache.tags.avg_refs                        0                       # Average number of references to valid blocks.
system.iocache.tags.warmup_cycle         2556157232000                       # Cycle when the warmup percentage was hit.
system.iocache.tags.occ_blocks::tsunami.ide     0.400809                       # Average occupied blocks per requestor
system.iocache.tags.occ_percent::tsunami.ide     0.025051                       # Average percentage of cache occupancy
system.iocache.tags.occ_percent::total       0.025051                       # Average percentage of cache occupancy
system.iocache.tags.occ_task_id_blocks::1023           16                       # Occupied blocks per task id
system.iocache.tags.age_task_id_blocks_1023::4           16                       # Occupied blocks per task id
system.iocache.tags.occ_task_id_percent::1023            1                       # Percentage of cache occupancy per task id
system.iocache.tags.tag_accesses               400185                       # Number of tag accesses
system.iocache.tags.data_accesses              400185                       # Number of data accesses
system.iocache.WriteInvalidateReq_hits::tsunami.ide        44256                       # number of WriteInvalidateReq hits
system.iocache.WriteInvalidateReq_hits::total        44256                       # number of WriteInvalidateReq hits
system.iocache.ReadReq_misses::tsunami.ide          209                       # number of ReadReq misses
system.iocache.ReadReq_misses::total              209                       # number of ReadReq misses
system.iocache.demand_misses::tsunami.ide          209                       # number of demand (read+write) misses
system.iocache.demand_misses::total               209                       # number of demand (read+write) misses
system.iocache.overall_misses::tsunami.ide          209                       # number of overall misses
system.iocache.overall_misses::total              209                       # number of overall misses
system.iocache.ReadReq_miss_latency::tsunami.ide     35839355                       # number of ReadReq miss cycles
system.iocache.ReadReq_miss_latency::total     35839355                       # number of ReadReq miss cycles
system.iocache.demand_miss_latency::tsunami.ide     35839355                       # number of demand (read+write) miss cycles
system.iocache.demand_miss_latency::total     35839355                       # number of demand (read+write) miss cycles
system.iocache.overall_miss_latency::tsunami.ide     35839355                       # number of overall miss cycles
system.iocache.overall_miss_latency::total     35839355                       # number of overall miss cycles
system.iocache.ReadReq_accesses::tsunami.ide          209                       # number of ReadReq accesses(hits+misses)
system.iocache.ReadReq_accesses::total            209                       # number of ReadReq accesses(hits+misses)
system.iocache.WriteInvalidateReq_accesses::tsunami.ide        44256                       # number of WriteInvalidateReq accesses(hits+misses)
system.iocache.WriteInvalidateReq_accesses::total        44256                       # number of WriteInvalidateReq accesses(hits+misses)
system.iocache.demand_accesses::tsunami.ide          209                       # number of demand (read+write) accesses
system.iocache.demand_accesses::total             209                       # number of demand (read+write) accesses
system.iocache.overall_accesses::tsunami.ide          209                       # number of overall (read+write) accesses
system.iocache.overall_accesses::total            209                       # number of overall (read+write) accesses
system.iocache.ReadReq_miss_rate::tsunami.ide            1                       # miss rate for ReadReq accesses
system.iocache.ReadReq_miss_rate::total             1                       # miss rate for ReadReq accesses
system.iocache.demand_miss_rate::tsunami.ide            1                       # miss rate for demand accesses
system.iocache.demand_miss_rate::total              1                       # miss rate for demand accesses
system.iocache.overall_miss_rate::tsunami.ide            1                       # miss rate for overall accesses
system.iocache.overall_miss_rate::total             1                       # miss rate for overall accesses
system.iocache.ReadReq_avg_miss_latency::tsunami.ide 171480.167464                       # average ReadReq miss latency
system.iocache.ReadReq_avg_miss_latency::total 171480.167464                       # average ReadReq miss latency
system.iocache.demand_avg_miss_latency::tsunami.ide 171480.167464                       # average overall miss latency
system.iocache.demand_avg_miss_latency::total 171480.167464                       # average overall miss latency
system.iocache.overall_avg_miss_latency::tsunami.ide 171480.167464                       # average overall miss latency
system.iocache.overall_avg_miss_latency::total 171480.167464                       # average overall miss latency
system.iocache.blocked_cycles::no_mshrs           442                       # number of cycles access was blocked
system.iocache.blocked_cycles::no_targets            0                       # number of cycles access was blocked
system.iocache.blocked::no_mshrs                   45                       # number of cycles access was blocked
system.iocache.blocked::no_targets                  0                       # number of cycles access was blocked
system.iocache.avg_blocked_cycles::no_mshrs     9.822222                       # average number of cycles each access was blocked
system.iocache.avg_blocked_cycles::no_targets          nan                       # average number of cycles each access was blocked
system.iocache.fast_writes                      44256                       # number of fast writes performed
system.iocache.cache_copies                         0                       # number of cache copies performed
system.iocache.ReadReq_mshr_misses::tsunami.ide          209                       # number of ReadReq MSHR misses
system.iocache.ReadReq_mshr_misses::total          209                       # number of ReadReq MSHR misses
system.iocache.WriteInvalidateReq_mshr_misses::tsunami.ide        44256                       # number of WriteInvalidateReq MSHR misses
system.iocache.WriteInvalidateReq_mshr_misses::total        44256                       # number of WriteInvalidateReq MSHR misses
system.iocache.demand_mshr_misses::tsunami.ide          209                       # number of demand (read+write) MSHR misses
system.iocache.demand_mshr_misses::total          209                       # number of demand (read+write) MSHR misses
system.iocache.overall_mshr_misses::tsunami.ide          209                       # number of overall MSHR misses
system.iocache.overall_mshr_misses::total          209                       # number of overall MSHR misses
system.iocache.ReadReq_mshr_miss_latency::tsunami.ide     24913855                       # number of ReadReq MSHR miss cycles
system.iocache.ReadReq_mshr_miss_latency::total     24913855                       # number of ReadReq MSHR miss cycles
system.iocache.WriteInvalidateReq_mshr_miss_latency::tsunami.ide   2941209504                       # number of WriteInvalidateReq MSHR miss cycles
system.iocache.WriteInvalidateReq_mshr_miss_latency::total   2941209504                       # number of WriteInvalidateReq MSHR miss cycles
system.iocache.demand_mshr_miss_latency::tsunami.ide     24913855                       # number of demand (read+write) MSHR miss cycles
system.iocache.demand_mshr_miss_latency::total     24913855                       # number of demand (read+write) MSHR miss cycles
system.iocache.overall_mshr_miss_latency::tsunami.ide     24913855                       # number of overall MSHR miss cycles
system.iocache.overall_mshr_miss_latency::total     24913855                       # number of overall MSHR miss cycles
system.iocache.ReadReq_mshr_miss_rate::tsunami.ide            1                       # mshr miss rate for ReadReq accesses
system.iocache.ReadReq_mshr_miss_rate::total            1                       # mshr miss rate for ReadReq accesses
system.iocache.WriteInvalidateReq_mshr_miss_rate::tsunami.ide            1                       # mshr miss rate for WriteInvalidateReq accesses
system.iocache.WriteInvalidateReq_mshr_miss_rate::total            1                       # mshr miss rate for WriteInvalidateReq accesses
system.iocache.demand_mshr_miss_rate::tsunami.ide            1                       # mshr miss rate for demand accesses
system.iocache.demand_mshr_miss_rate::total            1                       # mshr miss rate for demand accesses
system.iocache.overall_mshr_miss_rate::tsunami.ide            1                       # mshr miss rate for overall accesses
system.iocache.overall_mshr_miss_rate::total            1                       # mshr miss rate for overall accesses
system.iocache.ReadReq_avg_mshr_miss_latency::tsunami.ide 119205.047847                       # average ReadReq mshr miss latency
system.iocache.ReadReq_avg_mshr_miss_latency::total 119205.047847                       # average ReadReq mshr miss latency
system.iocache.WriteInvalidateReq_avg_mshr_miss_latency::tsunami.ide        66459                       # average WriteInvalidateReq mshr miss latency
system.iocache.WriteInvalidateReq_avg_mshr_miss_latency::total        66459                       # average WriteInvalidateReq mshr miss latency
system.iocache.demand_avg_mshr_miss_latency::tsunami.ide 119205.047847                       # average overall mshr miss latency
system.iocache.demand_avg_mshr_miss_latency::total 119205.047847                       # average overall mshr miss latency
system.iocache.overall_avg_mshr_miss_latency::tsunami.ide 119205.047847                       # average overall mshr miss latency
system.iocache.overall_avg_mshr_miss_latency::total 119205.047847                       # average overall mshr miss latency
system.iocache.no_allocate_misses                   0                       # Number of misses that were no-allocate
system.disk0.dma_read_full_pages                    0                       # Number of full page size DMA reads (not PRD).
system.disk0.dma_read_bytes                      4096                       # Number of bytes transfered via DMA reads (not PRD).
system.disk0.dma_read_txs                           1                       # Number of DMA read transactions (not PRD).
system.disk0.dma_write_full_pages                 326                       # Number of full page size DMA writes.
system.disk0.dma_write_bytes                  2824192                       # Number of bytes transfered via DMA writes.
system.disk0.dma_write_txs                        365                       # Number of DMA write transactions.
system.disk2.dma_read_full_pages                    0                       # Number of full page size DMA reads (not PRD).
system.disk2.dma_read_bytes                         0                       # Number of bytes transfered via DMA reads (not PRD).
system.disk2.dma_read_txs                           0                       # Number of DMA read transactions (not PRD).
system.disk2.dma_write_full_pages                   1                       # Number of full page size DMA writes.
system.disk2.dma_write_bytes                     8192                       # Number of bytes transfered via DMA writes.
system.disk2.dma_write_txs                          1                       # Number of DMA write transactions.
system.cpu_voltage_domain.voltage                   1                       # Voltage in Volts
system.cpu_clk_domain.clock                      1000                       # Clock period in ticks
system.cpu0.dtb.fetch_hits                          0                       # ITB hits
system.cpu0.dtb.fetch_misses                        0                       # ITB misses
system.cpu0.dtb.fetch_acv                           0                       # ITB acv
system.cpu0.dtb.fetch_accesses                      0                       # ITB accesses
system.cpu0.dtb.read_hits                    11323295                       # DTB read hits
system.cpu0.dtb.read_misses                      2735                       # DTB read misses
system.cpu0.dtb.read_acv                            0                       # DTB read access violations
system.cpu0.dtb.read_accesses                  211964                       # DTB read accesses
system.cpu0.dtb.write_hits                    4851783                       # DTB write hits
system.cpu0.dtb.write_misses                      242                       # DTB write misses
system.cpu0.dtb.write_acv                          28                       # DTB write access violations
system.cpu0.dtb.write_accesses                  92978                       # DTB write accesses
system.cpu0.dtb.data_hits                    16175078                       # DTB hits
system.cpu0.dtb.data_misses                      2977                       # DTB misses
system.cpu0.dtb.data_acv                           28                       # DTB access violations
system.cpu0.dtb.data_accesses                  304942                       # DTB accesses
system.cpu0.itb.fetch_hits                    2389788                       # ITB hits
system.cpu0.itb.fetch_misses                     1128                       # ITB misses
system.cpu0.itb.fetch_acv                           0                       # ITB acv
system.cpu0.itb.fetch_accesses                2390916                       # ITB accesses
system.cpu0.itb.read_hits                           0                       # DTB read hits
system.cpu0.itb.read_misses                         0                       # DTB read misses
system.cpu0.itb.read_acv                            0                       # DTB read access violations
system.cpu0.itb.read_accesses                       0                       # DTB read accesses
system.cpu0.itb.write_hits                          0                       # DTB write hits
system.cpu0.itb.write_misses                        0                       # DTB write misses
system.cpu0.itb.write_acv                           0                       # DTB write access violations
system.cpu0.itb.write_accesses                      0                       # DTB write accesses
system.cpu0.itb.data_hits                           0                       # DTB hits
system.cpu0.itb.data_misses                         0                       # DTB misses
system.cpu0.itb.data_acv                            0                       # DTB access violations
system.cpu0.itb.data_accesses                       0                       # DTB accesses
system.cpu0.numCycles                      2621110857                       # number of cpu cycles simulated
system.cpu0.numWorkItemsStarted                     0                       # number of work items this cpu started
system.cpu0.numWorkItemsCompleted                   0                       # number of work items this cpu completed
system.cpu0.committedInsts                   65928108                       # Number of instructions committed
system.cpu0.committedOps                     65928108                       # Number of ops (including micro ops) committed
system.cpu0.num_int_alu_accesses             63709673                       # Number of integer alu accesses
system.cpu0.num_fp_alu_accesses                197088                       # Number of float alu accesses
system.cpu0.num_func_calls                    2093497                       # number of times a function call or return occured
system.cpu0.num_conditional_control_insts      8739357                       # number of instructions that are conditional controls
system.cpu0.num_int_insts                    63709673                       # number of integer instructions
system.cpu0.num_fp_insts                       197088                       # number of float instructions
system.cpu0.num_int_register_reads           87114926                       # number of times the integer registers were read
system.cpu0.num_int_register_writes          49221304                       # number of times the integer registers were written
system.cpu0.num_fp_register_reads               78046                       # number of times the floating registers were read
system.cpu0.num_fp_register_writes              79449                       # number of times the floating registers were written
system.cpu0.num_mem_refs                     16199629                       # number of memory refs
system.cpu0.num_load_insts                   11337190                       # Number of load instructions
system.cpu0.num_store_insts                   4862439                       # Number of store instructions
system.cpu0.num_idle_cycles              2298989813.330541                       # Number of idle cycles
system.cpu0.num_busy_cycles              322121043.669459                       # Number of busy cycles
system.cpu0.not_idle_fraction                0.122895                       # Percentage of non-idle cycles
system.cpu0.idle_fraction                    0.877105                       # Percentage of idle cycles
system.cpu0.Branches                         11241395                       # Number of branches fetched
system.cpu0.op_class::No_OpClass              1387365      2.10%      2.10% # Class of executed instruction
system.cpu0.op_class::IntAlu                 47316061     71.77%     73.87% # Class of executed instruction
system.cpu0.op_class::IntMult                  118185      0.18%     74.05% # Class of executed instruction
system.cpu0.op_class::IntDiv                        0      0.00%     74.05% # Class of executed instruction
system.cpu0.op_class::FloatAdd                  61844      0.09%     74.14% # Class of executed instruction
system.cpu0.op_class::FloatCmp                      0      0.00%     74.14% # Class of executed instruction
system.cpu0.op_class::FloatCvt                      0      0.00%     74.14% # Class of executed instruction
system.cpu0.op_class::FloatMult                     0      0.00%     74.14% # Class of executed instruction
system.cpu0.op_class::FloatDiv                   1875      0.00%     74.15% # Class of executed instruction
system.cpu0.op_class::FloatSqrt                     0      0.00%     74.15% # Class of executed instruction
system.cpu0.op_class::SimdAdd                       0      0.00%     74.15% # Class of executed instruction
system.cpu0.op_class::SimdAddAcc                    0      0.00%     74.15% # Class of executed instruction
system.cpu0.op_class::SimdAlu                       0      0.00%     74.15% # Class of executed instruction
system.cpu0.op_class::SimdCmp                       0      0.00%     74.15% # Class of executed instruction
system.cpu0.op_class::SimdCvt                       0      0.00%     74.15% # Class of executed instruction
system.cpu0.op_class::SimdMisc                      0      0.00%     74.15% # Class of executed instruction
system.cpu0.op_class::SimdMult                      0      0.00%     74.15% # Class of executed instruction
system.cpu0.op_class::SimdMultAcc                   0      0.00%     74.15% # Class of executed instruction
system.cpu0.op_class::SimdShift                     0      0.00%     74.15% # Class of executed instruction
system.cpu0.op_class::SimdShiftAcc                  0      0.00%     74.15% # Class of executed instruction
system.cpu0.op_class::SimdSqrt                      0      0.00%     74.15% # Class of executed instruction
system.cpu0.op_class::SimdFloatAdd                  0      0.00%     74.15% # Class of executed instruction
system.cpu0.op_class::SimdFloatAlu                  0      0.00%     74.15% # Class of executed instruction
system.cpu0.op_class::SimdFloatCmp                  0      0.00%     74.15% # Class of executed instruction
system.cpu0.op_class::SimdFloatCvt                  0      0.00%     74.15% # Class of executed instruction
system.cpu0.op_class::SimdFloatDiv                  0      0.00%     74.15% # Class of executed instruction
system.cpu0.op_class::SimdFloatMisc                 0      0.00%     74.15% # Class of executed instruction
system.cpu0.op_class::SimdFloatMult                 0      0.00%     74.15% # Class of executed instruction
system.cpu0.op_class::SimdFloatMultAcc              0      0.00%     74.15% # Class of executed instruction
system.cpu0.op_class::SimdFloatSqrt                 0      0.00%     74.15% # Class of executed instruction
system.cpu0.op_class::MemRead                11585971     17.57%     91.72% # Class of executed instruction
system.cpu0.op_class::MemWrite                4879413      7.40%     99.12% # Class of executed instruction
system.cpu0.op_class::IprAccess                580399      0.88%    100.00% # Class of executed instruction
system.cpu0.op_class::InstPrefetch                  0      0.00%    100.00% # Class of executed instruction
system.cpu0.op_class::total                  65931113                       # Class of executed instruction
system.cpu0.kern.inst.arm                           0                       # number of arm instructions executed
system.cpu0.kern.inst.quiesce                    7070                       # number of quiesce instructions executed
system.cpu0.kern.inst.hwrei                    135512                       # number of hwrei instructions executed
system.cpu0.kern.ipl_count::0                   46261     37.73%     37.73% # number of times we switched to this ipl
system.cpu0.kern.ipl_count::21                     14      0.01%     37.74% # number of times we switched to this ipl
system.cpu0.kern.ipl_count::22                   2605      2.12%     39.87% # number of times we switched to this ipl
system.cpu0.kern.ipl_count::30                    757      0.62%     40.48% # number of times we switched to this ipl
system.cpu0.kern.ipl_count::31                  72975     59.52%    100.00% # number of times we switched to this ipl
system.cpu0.kern.ipl_count::total              122612                       # number of times we switched to this ipl
system.cpu0.kern.ipl_good::0                    46128     48.62%     48.62% # number of times we switched to this ipl from a different ipl
system.cpu0.kern.ipl_good::21                      14      0.01%     48.63% # number of times we switched to this ipl from a different ipl
system.cpu0.kern.ipl_good::22                    2605      2.75%     51.38% # number of times we switched to this ipl from a different ipl
system.cpu0.kern.ipl_good::30                     757      0.80%     52.18% # number of times we switched to this ipl from a different ipl
system.cpu0.kern.ipl_good::31                   45376     47.82%    100.00% # number of times we switched to this ipl from a different ipl
system.cpu0.kern.ipl_good::total                94880                       # number of times we switched to this ipl from a different ipl
system.cpu0.kern.ipl_ticks::0            2486223966000     94.85%     94.85% # number of cycles we spent at this ipl
system.cpu0.kern.ipl_ticks::21               14520000      0.00%     94.85% # number of cycles we spent at this ipl
system.cpu0.kern.ipl_ticks::22             1620384000      0.06%     94.92% # number of cycles we spent at this ipl
system.cpu0.kern.ipl_ticks::30             1543232000      0.06%     94.98% # number of cycles we spent at this ipl
system.cpu0.kern.ipl_ticks::31           131708727000      5.02%    100.00% # number of cycles we spent at this ipl
system.cpu0.kern.ipl_ticks::total        2621110829000                       # number of cycles we spent at this ipl
system.cpu0.kern.ipl_used::0                 0.997125                       # fraction of swpipl calls that actually changed the ipl
system.cpu0.kern.ipl_used::21                       1                       # fraction of swpipl calls that actually changed the ipl
system.cpu0.kern.ipl_used::22                       1                       # fraction of swpipl calls that actually changed the ipl
system.cpu0.kern.ipl_used::30                       1                       # fraction of swpipl calls that actually changed the ipl
system.cpu0.kern.ipl_used::31                0.621802                       # fraction of swpipl calls that actually changed the ipl
system.cpu0.kern.ipl_used::total             0.773823                       # fraction of swpipl calls that actually changed the ipl
system.cpu0.kern.syscall::2                         1      0.95%      0.95% # number of syscalls executed
system.cpu0.kern.syscall::3                        12     11.43%     12.38% # number of syscalls executed
system.cpu0.kern.syscall::6                        10      9.52%     21.90% # number of syscalls executed
system.cpu0.kern.syscall::15                        1      0.95%     22.86% # number of syscalls executed
system.cpu0.kern.syscall::17                        5      4.76%     27.62% # number of syscalls executed
system.cpu0.kern.syscall::23                        3      2.86%     30.48% # number of syscalls executed
system.cpu0.kern.syscall::24                        3      2.86%     33.33% # number of syscalls executed
system.cpu0.kern.syscall::33                        7      6.67%     40.00% # number of syscalls executed
system.cpu0.kern.syscall::45                       16     15.24%     55.24% # number of syscalls executed
system.cpu0.kern.syscall::47                        3      2.86%     58.10% # number of syscalls executed
system.cpu0.kern.syscall::48                        2      1.90%     60.00% # number of syscalls executed
system.cpu0.kern.syscall::59                        1      0.95%     60.95% # number of syscalls executed
system.cpu0.kern.syscall::71                       28     26.67%     87.62% # number of syscalls executed
system.cpu0.kern.syscall::73                        1      0.95%     88.57% # number of syscalls executed
system.cpu0.kern.syscall::74                        9      8.57%     97.14% # number of syscalls executed
system.cpu0.kern.syscall::132                       3      2.86%    100.00% # number of syscalls executed
system.cpu0.kern.syscall::total                   105                       # number of syscalls executed
[...]
system.cpu3.icache.overall_mshr_miss_rate::cpu3.inst     0.008375                       # mshr miss rate for overall accesses
system.cpu3.icache.overall_mshr_miss_rate::total     0.008375                       # mshr miss rate for overall accesses
system.cpu3.icache.ReadReq_avg_mshr_miss_latency::cpu3.inst 67933.673469                       # average ReadReq mshr miss latency
system.cpu3.icache.ReadReq_avg_mshr_miss_latency::total 67933.673469                       # average ReadReq mshr miss latency
system.cpu3.icache.demand_avg_mshr_miss_latency::cpu3.inst 67933.673469                       # average overall mshr miss latency
system.cpu3.icache.demand_avg_mshr_miss_latency::total 67933.673469                       # average overall mshr miss latency
system.cpu3.icache.overall_avg_mshr_miss_latency::cpu3.inst 67933.673469                       # average overall mshr miss latency
system.cpu3.icache.overall_avg_mshr_miss_latency::total 67933.673469                       # average overall mshr miss latency
system.cpu3.icache.no_allocate_misses               0                       # Number of misses that were no-allocate
system.cpu3.dcache.tags.replacements               26                       # number of replacements
system.cpu3.dcache.tags.tagsinuse          873.853866                       # Cycle average of tags in use
system.cpu3.dcache.tags.total_refs              16245                       # Total number of references to valid blocks.
system.cpu3.dcache.tags.sampled_refs              894                       # Sample count of references to valid blocks.
system.cpu3.dcache.tags.avg_refs            18.171141                       # Average number of references to valid blocks.
system.cpu3.dcache.tags.warmup_cycle                0                       # Cycle when the warmup percentage was hit.
system.cpu3.dcache.tags.occ_blocks::cpu3.data   873.853866                       # Average occupied blocks per requestor
system.cpu3.dcache.tags.occ_percent::cpu3.data     0.853373                       # Average percentage of cache occupancy
system.cpu3.dcache.tags.occ_percent::total     0.853373                       # Average percentage of cache occupancy
system.cpu3.dcache.tags.occ_task_id_blocks::1024          868                       # Occupied blocks per task id
system.cpu3.dcache.tags.age_task_id_blocks_1024::2            3                       # Occupied blocks per task id
system.cpu3.dcache.tags.age_task_id_blocks_1024::3          865                       # Occupied blocks per task id
system.cpu3.dcache.tags.occ_task_id_percent::1024     0.847656                       # Percentage of cache occupancy per task id
system.cpu3.dcache.tags.tag_accesses             3976                       # Number of tag accesses
system.cpu3.dcache.tags.data_accesses            3976                       # Number of data accesses
system.cpu3.dcache.ReadReq_hits::cpu3.data         1204                       # number of ReadReq hits
system.cpu3.dcache.ReadReq_hits::total           1204                       # number of ReadReq hits
system.cpu3.dcache.WriteReq_hits::cpu3.data          649                       # number of WriteReq hits
system.cpu3.dcache.WriteReq_hits::total           649                       # number of WriteReq hits
system.cpu3.dcache.LoadLockedReq_hits::cpu3.data           17                       # number of LoadLockedReq hits
system.cpu3.dcache.LoadLockedReq_hits::total           17                       # number of LoadLockedReq hits
system.cpu3.dcache.StoreCondReq_hits::cpu3.data           16                       # number of StoreCondReq hits
system.cpu3.dcache.StoreCondReq_hits::total           16                       # number of StoreCondReq hits
system.cpu3.dcache.demand_hits::cpu3.data         1853                       # number of demand (read+write) hits
system.cpu3.dcache.demand_hits::total            1853                       # number of demand (read+write) hits
system.cpu3.dcache.overall_hits::cpu3.data         1853                       # number of overall hits
system.cpu3.dcache.overall_hits::total           1853                       # number of overall hits
system.cpu3.dcache.ReadReq_misses::cpu3.data           44                       # number of ReadReq misses
system.cpu3.dcache.ReadReq_misses::total           44                       # number of ReadReq misses
system.cpu3.dcache.WriteReq_misses::cpu3.data           11                       # number of WriteReq misses
system.cpu3.dcache.WriteReq_misses::total           11                       # number of WriteReq misses
system.cpu3.dcache.LoadLockedReq_misses::cpu3.data            9                       # number of LoadLockedReq misses
system.cpu3.dcache.LoadLockedReq_misses::total            9                       # number of LoadLockedReq misses
system.cpu3.dcache.StoreCondReq_misses::cpu3.data            9                       # number of StoreCondReq misses
system.cpu3.dcache.StoreCondReq_misses::total            9                       # number of StoreCondReq misses
system.cpu3.dcache.demand_misses::cpu3.data           55                       # number of demand (read+write) misses
system.cpu3.dcache.demand_misses::total            55                       # number of demand (read+write) misses
system.cpu3.dcache.overall_misses::cpu3.data           55                       # number of overall misses
system.cpu3.dcache.overall_misses::total           55                       # number of overall misses
system.cpu3.dcache.ReadReq_miss_latency::cpu3.data      2223500                       # number of ReadReq miss cycles
system.cpu3.dcache.ReadReq_miss_latency::total      2223500                       # number of ReadReq miss cycles
system.cpu3.dcache.WriteReq_miss_latency::cpu3.data       280496                       # number of WriteReq miss cycles
system.cpu3.dcache.WriteReq_miss_latency::total       280496                       # number of WriteReq miss cycles
system.cpu3.dcache.LoadLockedReq_miss_latency::cpu3.data       322250                       # number of LoadLockedReq miss cycles
system.cpu3.dcache.LoadLockedReq_miss_latency::total       322250                       # number of LoadLockedReq miss cycles
system.cpu3.dcache.StoreCondReq_miss_latency::cpu3.data        79997                       # number of StoreCondReq miss cycles
system.cpu3.dcache.StoreCondReq_miss_latency::total        79997                       # number of StoreCondReq miss cycles
system.cpu3.dcache.demand_miss_latency::cpu3.data      2503996                       # number of demand (read+write) miss cycles
system.cpu3.dcache.demand_miss_latency::total      2503996                       # number of demand (read+write) miss cycles
system.cpu3.dcache.overall_miss_latency::cpu3.data      2503996                       # number of overall miss cycles
system.cpu3.dcache.overall_miss_latency::total      2503996                       # number of overall miss cycles
system.cpu3.dcache.ReadReq_accesses::cpu3.data         1248                       # number of ReadReq accesses(hits+misses)
system.cpu3.dcache.ReadReq_accesses::total         1248                       # number of ReadReq accesses(hits+misses)
system.cpu3.dcache.WriteReq_accesses::cpu3.data          660                       # number of WriteReq accesses(hits+misses)
system.cpu3.dcache.WriteReq_accesses::total          660                       # number of WriteReq accesses(hits+misses)
system.cpu3.dcache.LoadLockedReq_accesses::cpu3.data           26                       # number of LoadLockedReq accesses(hits+misses)
system.cpu3.dcache.LoadLockedReq_accesses::total           26                       # number of LoadLockedReq accesses(hits+misses)
system.cpu3.dcache.StoreCondReq_accesses::cpu3.data           25                       # number of StoreCondReq accesses(hits+misses)
system.cpu3.dcache.StoreCondReq_accesses::total           25                       # number of StoreCondReq accesses(hits+misses)
system.cpu3.dcache.demand_accesses::cpu3.data         1908                       # number of demand (read+write) accesses
system.cpu3.dcache.demand_accesses::total         1908                       # number of demand (read+write) accesses
system.cpu3.dcache.overall_accesses::cpu3.data         1908                       # number of overall (read+write) accesses
system.cpu3.dcache.overall_accesses::total         1908                       # number of overall (read+write) accesses
system.cpu3.dcache.ReadReq_miss_rate::cpu3.data     0.035256                       # miss rate for ReadReq accesses
system.cpu3.dcache.ReadReq_miss_rate::total     0.035256                       # miss rate for ReadReq accesses
system.cpu3.dcache.WriteReq_miss_rate::cpu3.data     0.016667                       # miss rate for WriteReq accesses
system.cpu3.dcache.WriteReq_miss_rate::total     0.016667                       # miss rate for WriteReq accesses
system.cpu3.dcache.LoadLockedReq_miss_rate::cpu3.data     0.346154                       # miss rate for LoadLockedReq accesses
system.cpu3.dcache.LoadLockedReq_miss_rate::total     0.346154                       # miss rate for LoadLockedReq accesses
system.cpu3.dcache.StoreCondReq_miss_rate::cpu3.data     0.360000                       # miss rate for StoreCondReq accesses
system.cpu3.dcache.StoreCondReq_miss_rate::total     0.360000                       # miss rate for StoreCondReq accesses
system.cpu3.dcache.demand_miss_rate::cpu3.data     0.028826                       # miss rate for demand accesses
system.cpu3.dcache.demand_miss_rate::total     0.028826                       # miss rate for demand accesses
system.cpu3.dcache.overall_miss_rate::cpu3.data     0.028826                       # miss rate for overall accesses
system.cpu3.dcache.overall_miss_rate::total     0.028826                       # miss rate for overall accesses
system.cpu3.dcache.ReadReq_avg_miss_latency::cpu3.data 50534.090909                       # average ReadReq miss latency
system.cpu3.dcache.ReadReq_avg_miss_latency::total 50534.090909                       # average ReadReq miss latency
system.cpu3.dcache.WriteReq_avg_miss_latency::cpu3.data 25499.636364                       # average WriteReq miss latency
system.cpu3.dcache.WriteReq_avg_miss_latency::total 25499.636364                       # average WriteReq miss latency
system.cpu3.dcache.LoadLockedReq_avg_miss_latency::cpu3.data 35805.555556                       # average LoadLockedReq miss latency
system.cpu3.dcache.LoadLockedReq_avg_miss_latency::total 35805.555556                       # average LoadLockedReq miss latency
system.cpu3.dcache.StoreCondReq_avg_miss_latency::cpu3.data  8888.555556                       # average StoreCondReq miss latency
system.cpu3.dcache.StoreCondReq_avg_miss_latency::total  8888.555556                       # average StoreCondReq miss latency
system.cpu3.dcache.demand_avg_miss_latency::cpu3.data 45527.200000                       # average overall miss latency
system.cpu3.dcache.demand_avg_miss_latency::total 45527.200000                       # average overall miss latency
system.cpu3.dcache.overall_avg_miss_latency::cpu3.data 45527.200000                       # average overall miss latency
system.cpu3.dcache.overall_avg_miss_latency::total 45527.200000                       # average overall miss latency
system.cpu3.dcache.blocked_cycles::no_mshrs            0                       # number of cycles access was blocked
system.cpu3.dcache.blocked_cycles::no_targets            0                       # number of cycles access was blocked
system.cpu3.dcache.blocked::no_mshrs                0                       # number of cycles access was blocked
system.cpu3.dcache.blocked::no_targets              0                       # number of cycles access was blocked
system.cpu3.dcache.avg_blocked_cycles::no_mshrs          nan                       # average number of cycles each access was blocked
system.cpu3.dcache.avg_blocked_cycles::no_targets          nan                       # average number of cycles each access was blocked
system.cpu3.dcache.fast_writes                      0                       # number of fast writes performed
system.cpu3.dcache.cache_copies                     0                       # number of cache copies performed
system.cpu3.dcache.writebacks::writebacks           12                       # number of writebacks
system.cpu3.dcache.writebacks::total               12                       # number of writebacks
system.cpu3.dcache.ReadReq_mshr_misses::cpu3.data           44                       # number of ReadReq MSHR misses
system.cpu3.dcache.ReadReq_mshr_misses::total           44                       # number of ReadReq MSHR misses
system.cpu3.dcache.WriteReq_mshr_misses::cpu3.data           11                       # number of WriteReq MSHR misses
system.cpu3.dcache.WriteReq_mshr_misses::total           11                       # number of WriteReq MSHR misses
system.cpu3.dcache.LoadLockedReq_mshr_misses::cpu3.data            9                       # number of LoadLockedReq MSHR misses
system.cpu3.dcache.LoadLockedReq_mshr_misses::total            9                       # number of LoadLockedReq MSHR misses
system.cpu3.dcache.StoreCondReq_mshr_misses::cpu3.data            9                       # number of StoreCondReq MSHR misses
system.cpu3.dcache.StoreCondReq_mshr_misses::total            9                       # number of StoreCondReq MSHR misses
system.cpu3.dcache.demand_mshr_misses::cpu3.data           55                       # number of demand (read+write) MSHR misses
system.cpu3.dcache.demand_mshr_misses::total           55                       # number of demand (read+write) MSHR misses
system.cpu3.dcache.overall_mshr_misses::cpu3.data           55                       # number of overall MSHR misses
system.cpu3.dcache.overall_mshr_misses::total           55                       # number of overall MSHR misses
system.cpu3.dcache.ReadReq_mshr_miss_latency::cpu3.data      2008500                       # number of ReadReq MSHR miss cycles
system.cpu3.dcache.ReadReq_mshr_miss_latency::total      2008500                       # number of ReadReq MSHR miss cycles
system.cpu3.dcache.WriteReq_mshr_miss_latency::cpu3.data       225504                       # number of WriteReq MSHR miss cycles
system.cpu3.dcache.WriteReq_mshr_miss_latency::total       225504                       # number of WriteReq MSHR miss cycles
system.cpu3.dcache.LoadLockedReq_mshr_miss_latency::cpu3.data       281750                       # number of LoadLockedReq MSHR miss cycles
system.cpu3.dcache.LoadLockedReq_mshr_miss_latency::total       281750                       # number of LoadLockedReq MSHR miss cycles
system.cpu3.dcache.StoreCondReq_mshr_miss_latency::cpu3.data        38003                       # number of StoreCondReq MSHR miss cycles
system.cpu3.dcache.StoreCondReq_mshr_miss_latency::total        38003                       # number of StoreCondReq MSHR miss cycles
system.cpu3.dcache.demand_mshr_miss_latency::cpu3.data      2234004                       # number of demand (read+write) MSHR miss cycles
system.cpu3.dcache.demand_mshr_miss_latency::total      2234004                       # number of demand (read+write) MSHR miss cycles
system.cpu3.dcache.overall_mshr_miss_latency::cpu3.data      2234004                       # number of overall MSHR miss cycles
system.cpu3.dcache.overall_mshr_miss_latency::total      2234004                       # number of overall MSHR miss cycles
system.cpu3.dcache.WriteReq_mshr_uncacheable_latency::cpu3.data       808000                       # number of WriteReq MSHR uncacheable cycles
system.cpu3.dcache.WriteReq_mshr_uncacheable_latency::total       808000                       # number of WriteReq MSHR uncacheable cycles
system.cpu3.dcache.overall_mshr_uncacheable_latency::cpu3.data       808000                       # number of overall MSHR uncacheable cycles
system.cpu3.dcache.overall_mshr_uncacheable_latency::total       808000                       # number of overall MSHR uncacheable cycles
system.cpu3.dcache.ReadReq_mshr_miss_rate::cpu3.data     0.035256                       # mshr miss rate for ReadReq accesses
system.cpu3.dcache.ReadReq_mshr_miss_rate::total     0.035256                       # mshr miss rate for ReadReq accesses
system.cpu3.dcache.WriteReq_mshr_miss_rate::cpu3.data     0.016667                       # mshr miss rate for WriteReq accesses
system.cpu3.dcache.WriteReq_mshr_miss_rate::total     0.016667                       # mshr miss rate for WriteReq accesses
system.cpu3.dcache.LoadLockedReq_mshr_miss_rate::cpu3.data     0.346154                       # mshr miss rate for LoadLockedReq accesses
system.cpu3.dcache.LoadLockedReq_mshr_miss_rate::total     0.346154                       # mshr miss rate for LoadLockedReq accesses
system.cpu3.dcache.StoreCondReq_mshr_miss_rate::cpu3.data     0.360000                       # mshr miss rate for StoreCondReq accesses
system.cpu3.dcache.StoreCondReq_mshr_miss_rate::total     0.360000                       # mshr miss rate for StoreCondReq accesses
system.cpu3.dcache.demand_mshr_miss_rate::cpu3.data     0.028826                       # mshr miss rate for demand accesses
system.cpu3.dcache.demand_mshr_miss_rate::total     0.028826                       # mshr miss rate for demand accesses
system.cpu3.dcache.overall_mshr_miss_rate::cpu3.data     0.028826                       # mshr miss rate for overall accesses
system.cpu3.dcache.overall_mshr_miss_rate::total     0.028826                       # mshr miss rate for overall accesses
system.cpu3.dcache.ReadReq_avg_mshr_miss_latency::cpu3.data 45647.727273                       # average ReadReq mshr miss latency
system.cpu3.dcache.ReadReq_avg_mshr_miss_latency::total 45647.727273                       # average ReadReq mshr miss latency
system.cpu3.dcache.WriteReq_avg_mshr_miss_latency::cpu3.data 20500.363636                       # average WriteReq mshr miss latency
system.cpu3.dcache.WriteReq_avg_mshr_miss_latency::total 20500.363636                       # average WriteReq mshr miss latency
system.cpu3.dcache.LoadLockedReq_avg_mshr_miss_latency::cpu3.data 31305.555556                       # average LoadLockedReq mshr miss latency
system.cpu3.dcache.LoadLockedReq_avg_mshr_miss_latency::total 31305.555556                       # average LoadLockedReq mshr miss latency
system.cpu3.dcache.StoreCondReq_avg_mshr_miss_latency::cpu3.data  4222.555556                       # average StoreCondReq mshr miss latency
system.cpu3.dcache.StoreCondReq_avg_mshr_miss_latency::total  4222.555556                       # average StoreCondReq mshr miss latency
system.cpu3.dcache.demand_avg_mshr_miss_latency::cpu3.data 40618.254545                       # average overall mshr miss latency
system.cpu3.dcache.demand_avg_mshr_miss_latency::total 40618.254545                       # average overall mshr miss latency
system.cpu3.dcache.overall_avg_mshr_miss_latency::cpu3.data 40618.254545                       # average overall mshr miss latency
system.cpu3.dcache.overall_avg_mshr_miss_latency::total 40618.254545                       # average overall mshr miss latency
system.cpu3.dcache.WriteReq_avg_mshr_uncacheable_latency::cpu3.data          inf                       # average WriteReq mshr uncacheable latency
system.cpu3.dcache.WriteReq_avg_mshr_uncacheable_latency::total          inf                       # average WriteReq mshr uncacheable latency
system.cpu3.dcache.overall_avg_mshr_uncacheable_latency::cpu3.data          inf                       # average overall mshr uncacheable latency
system.cpu3.dcache.overall_avg_mshr_uncacheable_latency::total          inf                       # average overall mshr uncacheable latency
system.cpu3.dcache.no_allocate_misses               0                       # Number of misses that were no-allocate

---------- End Simulation Statistics   ----------
