
---------- Begin Simulation Statistics ----------
sim_seconds                                  2.457481                       # Number of seconds simulated
sim_ticks                                2457481425500                       # Number of ticks simulated
final_tick                               2457481425500                       # Number of ticks from beginning of simulation (restored from checkpoints and never reset)
sim_freq                                 1000000000000                       # Frequency of simulated ticks
host_inst_rate                                 168291                       # Simulator instruction rate (inst/s)
host_op_rate                                   168291                       # Simulator op (including micro ops) rate (op/s)
host_tick_rate                             4271925358                       # Simulator tick rate (ticks/s)
host_mem_usage                                 462316                       # Number of bytes of host memory used
host_seconds                                   575.26                       # Real time elapsed on the host
sim_insts                                    96811565                       # Number of instructions simulated
sim_ops                                      96811565                       # Number of ops (including micro ops) simulated
system.voltage_domain.voltage                       1                       # Voltage in Volts
system.clk_domain.clock                          1000                       # Clock period in ticks
system.mem_ctrls.bytes_read::cpu0.inst       57437184                       # Number of bytes read from this memory
system.mem_ctrls.bytes_read::cpu0.data      162018816                       # Number of bytes read from this memory
system.mem_ctrls.bytes_read::tsunami.ide        13312                       # Number of bytes read from this memory
system.mem_ctrls.bytes_read::cpu1.inst       41846592                       # Number of bytes read from this memory
system.mem_ctrls.bytes_read::cpu1.data       15004736                       # Number of bytes read from this memory
system.mem_ctrls.bytes_read::total          276320640                       # Number of bytes read from this memory
system.mem_ctrls.bytes_inst_read::cpu0.inst     57437184                       # Number of instructions bytes read from this memory
system.mem_ctrls.bytes_inst_read::cpu1.inst     41846592                       # Number of instructions bytes read from this memory
system.mem_ctrls.bytes_inst_read::total      99283776                       # Number of instructions bytes read from this memory
system.mem_ctrls.bytes_written::writebacks     28207232                       # Number of bytes written to this memory
system.mem_ctrls.bytes_written::tsunami.ide      2832384                       # Number of bytes written to this memory
system.mem_ctrls.bytes_written::total        31039616                       # Number of bytes written to this memory
system.mem_ctrls.num_reads::cpu0.inst          897456                       # Number of read requests responded to by this memory
system.mem_ctrls.num_reads::cpu0.data         2531544                       # Number of read requests responded to by this memory
system.mem_ctrls.num_reads::tsunami.ide           208                       # Number of read requests responded to by this memory
system.mem_ctrls.num_reads::cpu1.inst          653853                       # Number of read requests responded to by this memory
system.mem_ctrls.num_reads::cpu1.data          234449                       # Number of read requests responded to by this memory
system.mem_ctrls.num_reads::total             4317510                       # Number of read requests responded to by this memory
system.mem_ctrls.num_writes::writebacks        440738                       # Number of write requests responded to by this memory
system.mem_ctrls.num_writes::tsunami.ide        44256                       # Number of write requests responded to by this memory
system.mem_ctrls.num_writes::total             484994                       # Number of write requests responded to by this memory
system.mem_ctrls.bw_read::cpu0.inst          23372378                       # Total read bandwidth from this memory (bytes/s)
system.mem_ctrls.bw_read::cpu0.data          65928806                       # Total read bandwidth from this memory (bytes/s)
system.mem_ctrls.bw_read::tsunami.ide            5417                       # Total read bandwidth from this memory (bytes/s)
system.mem_ctrls.bw_read::cpu1.inst          17028243                       # Total read bandwidth from this memory (bytes/s)
system.mem_ctrls.bw_read::cpu1.data           6105737                       # Total read bandwidth from this memory (bytes/s)
system.mem_ctrls.bw_read::total             112440581                       # Total read bandwidth from this memory (bytes/s)
system.mem_ctrls.bw_inst_read::cpu0.inst     23372378                       # Instruction read bandwidth from this memory (bytes/s)
system.mem_ctrls.bw_inst_read::cpu1.inst     17028243                       # Instruction read bandwidth from this memory (bytes/s)
system.mem_ctrls.bw_inst_read::total         40400621                       # Instruction read bandwidth from this memory (bytes/s)
system.mem_ctrls.bw_write::writebacks        11478106                       # Write bandwidth from this memory (bytes/s)
system.mem_ctrls.bw_write::tsunami.ide        1152556                       # Write bandwidth from this memory (bytes/s)
system.mem_ctrls.bw_write::total             12630661                       # Write bandwidth from this memory (bytes/s)
system.mem_ctrls.bw_total::writebacks        11478106                       # Total bandwidth to/from this memory (bytes/s)
system.mem_ctrls.bw_total::cpu0.inst         23372378                       # Total bandwidth to/from this memory (bytes/s)
system.mem_ctrls.bw_total::cpu0.data         65928806                       # Total bandwidth to/from this memory (bytes/s)
system.mem_ctrls.bw_total::tsunami.ide        1157973                       # Total bandwidth to/from this memory (bytes/s)
system.mem_ctrls.bw_total::cpu1.inst         17028243                       # Total bandwidth to/from this memory (bytes/s)
system.mem_ctrls.bw_total::cpu1.data          6105737                       # Total bandwidth to/from this memory (bytes/s)
system.mem_ctrls.bw_total::total            125071243                       # Total bandwidth to/from this memory (bytes/s)
system.mem_ctrls.readReqs                     4317510                       # Number of read requests accepted
system.mem_ctrls.writeReqs                     484994                       # Number of write requests accepted
system.mem_ctrls.readBursts                   4317510                       # Number of DRAM read bursts, including those serviced by the write queue
system.mem_ctrls.writeBursts                   484994                       # Number of DRAM write bursts, including those merged in the write queue
system.mem_ctrls.bytesReadDRAM              273892672                       # Total number of bytes read from DRAM
system.mem_ctrls.bytesReadWrQ                 2427968                       # Total number of bytes read from write queue
system.mem_ctrls.bytesWritten                30685056                       # Total number of bytes written to DRAM
system.mem_ctrls.bytesReadSys               276320640                       # Total read bytes from the system interface side
system.mem_ctrls.bytesWrittenSys             31039616                       # Total written bytes from the system interface side
system.mem_ctrls.servicedByWrQ                  37937                       # Number of DRAM read bursts serviced by the write queue
system.mem_ctrls.mergedWrBursts                  5514                       # Number of DRAM write bursts merged with an existing one
system.mem_ctrls.neitherReadNorWriteReqs        19733                       # Number of requests that are neither read nor write
system.mem_ctrls.perBankRdBursts::0            271556                       # Per bank write bursts
system.mem_ctrls.perBankRdBursts::1            256444                       # Per bank write bursts
system.mem_ctrls.perBankRdBursts::2            248721                       # Per bank write bursts
system.mem_ctrls.perBankRdBursts::3            225577                       # Per bank write bursts
system.mem_ctrls.perBankRdBursts::4            249414                       # Per bank write bursts
system.mem_ctrls.perBankRdBursts::5            248997                       # Per bank write bursts
system.mem_ctrls.perBankRdBursts::6            256584                       # Per bank write bursts
system.mem_ctrls.perBankRdBursts::7            287194                       # Per bank write bursts
system.mem_ctrls.perBankRdBursts::8            312912                       # Per bank write bursts
system.mem_ctrls.perBankRdBursts::9            231772                       # Per bank write bursts
system.mem_ctrls.perBankRdBursts::10           258507                       # Per bank write bursts
system.mem_ctrls.perBankRdBursts::11           341335                       # Per bank write bursts
system.mem_ctrls.perBankRdBursts::12           295963                       # Per bank write bursts
system.mem_ctrls.perBankRdBursts::13           292857                       # Per bank write bursts
system.mem_ctrls.perBankRdBursts::14           264855                       # Per bank write bursts
system.mem_ctrls.perBankRdBursts::15           236885                       # Per bank write bursts
system.mem_ctrls.perBankWrBursts::0             24476                       # Per bank write bursts
system.mem_ctrls.perBankWrBursts::1             31697                       # Per bank write bursts
system.mem_ctrls.perBankWrBursts::2             27391                       # Per bank write bursts
system.mem_ctrls.perBankWrBursts::3             52736                       # Per bank write bursts
system.mem_ctrls.perBankWrBursts::4             24545                       # Per bank write bursts
system.mem_ctrls.perBankWrBursts::5             21489                       # Per bank write bursts
system.mem_ctrls.perBankWrBursts::6             27330                       # Per bank write bursts
system.mem_ctrls.perBankWrBursts::7             37438                       # Per bank write bursts
system.mem_ctrls.perBankWrBursts::8             25732                       # Per bank write bursts
system.mem_ctrls.perBankWrBursts::9             23815                       # Per bank write bursts
system.mem_ctrls.perBankWrBursts::10            24726                       # Per bank write bursts
system.mem_ctrls.perBankWrBursts::11            49654                       # Per bank write bursts
system.mem_ctrls.perBankWrBursts::12            22787                       # Per bank write bursts
system.mem_ctrls.perBankWrBursts::13            23734                       # Per bank write bursts
system.mem_ctrls.perBankWrBursts::14            29625                       # Per bank write bursts
system.mem_ctrls.perBankWrBursts::15            32279                       # Per bank write bursts
system.mem_ctrls.numRdRetry                         0                       # Number of times read queue was full causing retry
system.mem_ctrls.numWrRetry                        51                       # Number of times write queue was full causing retry
system.mem_ctrls.totGap                  2457481366000                       # Total gap between requests
system.mem_ctrls.readPktSize::0                     0                       # Read request sizes (log2)
system.mem_ctrls.readPktSize::1                     0                       # Read request sizes (log2)
system.mem_ctrls.readPktSize::2                     0                       # Read request sizes (log2)
system.mem_ctrls.readPktSize::3                     0                       # Read request sizes (log2)
system.mem_ctrls.readPktSize::4                     0                       # Read request sizes (log2)
system.mem_ctrls.readPktSize::5                     0                       # Read request sizes (log2)
system.mem_ctrls.readPktSize::6               4317510                       # Read request sizes (log2)
system.mem_ctrls.writePktSize::0                    0                       # Write request sizes (log2)
system.mem_ctrls.writePktSize::1                    0                       # Write request sizes (log2)
system.mem_ctrls.writePktSize::2                    0                       # Write request sizes (log2)
system.mem_ctrls.writePktSize::3                    0                       # Write request sizes (log2)
system.mem_ctrls.writePktSize::4                    0                       # Write request sizes (log2)
system.mem_ctrls.writePktSize::5                    0                       # Write request sizes (log2)
system.mem_ctrls.writePktSize::6               484994                       # Write request sizes (log2)
system.mem_ctrls.rdQLenPdf::0                 2864191                       # What read queue length does an incoming req see
system.mem_ctrls.rdQLenPdf::1                 1044067                       # What read queue length does an incoming req see
system.mem_ctrls.rdQLenPdf::2                  273485                       # What read queue length does an incoming req see
system.mem_ctrls.rdQLenPdf::3                   78783                       # What read queue length does an incoming req see
system.mem_ctrls.rdQLenPdf::4                   14199                       # What read queue length does an incoming req see
system.mem_ctrls.rdQLenPdf::5                    3487                       # What read queue length does an incoming req see
system.mem_ctrls.rdQLenPdf::6                     995                       # What read queue length does an incoming req see
system.mem_ctrls.rdQLenPdf::7                     305                       # What read queue length does an incoming req see
system.mem_ctrls.rdQLenPdf::8                      36                       # What read queue length does an incoming req see
system.mem_ctrls.rdQLenPdf::9                       5                       # What read queue length does an incoming req see
system.mem_ctrls.rdQLenPdf::10                      2                       # What read queue length does an incoming req see
system.mem_ctrls.rdQLenPdf::11                      4                       # What read queue length does an incoming req see
system.mem_ctrls.rdQLenPdf::12                      3                       # What read queue length does an incoming req see
system.mem_ctrls.rdQLenPdf::13                      1                       # What read queue length does an incoming req see
system.mem_ctrls.rdQLenPdf::14                      1                       # What read queue length does an incoming req see
system.mem_ctrls.rdQLenPdf::15                      1                       # What read queue length does an incoming req see
system.mem_ctrls.rdQLenPdf::16                      2                       # What read queue length does an incoming req see
system.mem_ctrls.rdQLenPdf::17                      1                       # What read queue length does an incoming req see
system.mem_ctrls.rdQLenPdf::18                      1                       # What read queue length does an incoming req see
system.mem_ctrls.rdQLenPdf::19                      1                       # What read queue length does an incoming req see
system.mem_ctrls.rdQLenPdf::20                      1                       # What read queue length does an incoming req see
system.mem_ctrls.rdQLenPdf::21                      2                       # What read queue length does an incoming req see
system.mem_ctrls.rdQLenPdf::22                      0                       # What read queue length does an incoming req see
system.mem_ctrls.rdQLenPdf::23                      0                       # What read queue length does an incoming req see
system.mem_ctrls.rdQLenPdf::24                      0                       # What read queue length does an incoming req see
system.mem_ctrls.rdQLenPdf::25                      0                       # What read queue length does an incoming req see
system.mem_ctrls.rdQLenPdf::26                      0                       # What read queue length does an incoming req see
system.mem_ctrls.rdQLenPdf::27                      0                       # What read queue length does an incoming req see
system.mem_ctrls.rdQLenPdf::28                      0                       # What read queue length does an incoming req see
system.mem_ctrls.rdQLenPdf::29                      0                       # What read queue length does an incoming req see
system.mem_ctrls.rdQLenPdf::30                      0                       # What read queue length does an incoming req see
system.mem_ctrls.rdQLenPdf::31                      0                       # What read queue length does an incoming req see
system.mem_ctrls.wrQLenPdf::0                       1                       # What write queue length does an incoming req see
system.mem_ctrls.wrQLenPdf::1                       1                       # What write queue length does an incoming req see
system.mem_ctrls.wrQLenPdf::2                       1                       # What write queue length does an incoming req see
system.mem_ctrls.wrQLenPdf::3                       1                       # What write queue length does an incoming req see
system.mem_ctrls.wrQLenPdf::4                       1                       # What write queue length does an incoming req see
system.mem_ctrls.wrQLenPdf::5                       1                       # What write queue length does an incoming req see
system.mem_ctrls.wrQLenPdf::6                       1                       # What write queue length does an incoming req see
system.mem_ctrls.wrQLenPdf::7                       1                       # What write queue length does an incoming req see
system.mem_ctrls.wrQLenPdf::8                       1                       # What write queue length does an incoming req see
system.mem_ctrls.wrQLenPdf::9                       1                       # What write queue length does an incoming req see
system.mem_ctrls.wrQLenPdf::10                      1                       # What write queue length does an incoming req see
system.mem_ctrls.wrQLenPdf::11                      1                       # What write queue length does an incoming req see
system.mem_ctrls.wrQLenPdf::12                      1                       # What write queue length does an incoming req see
system.mem_ctrls.wrQLenPdf::13                      1                       # What write queue length does an incoming req see
system.mem_ctrls.wrQLenPdf::14                      1                       # What write queue length does an incoming req see
system.mem_ctrls.wrQLenPdf::15                   1102                       # What write queue length does an incoming req see
system.mem_ctrls.wrQLenPdf::16                   1549                       # What write queue length does an incoming req see
system.mem_ctrls.wrQLenPdf::17                  16338                       # What write queue length does an incoming req see
system.mem_ctrls.wrQLenPdf::18                  19443                       # What write queue length does an incoming req see
system.mem_ctrls.wrQLenPdf::19                  21475                       # What write queue length does an incoming req see
system.mem_ctrls.wrQLenPdf::20                  26384                       # What write queue length does an incoming req see
system.mem_ctrls.wrQLenPdf::21                  28342                       # What write queue length does an incoming req see
system.mem_ctrls.wrQLenPdf::22                  30041                       # What write queue length does an incoming req see
system.mem_ctrls.wrQLenPdf::23                  31922                       # What write queue length does an incoming req see
system.mem_ctrls.wrQLenPdf::24                  32861                       # What write queue length does an incoming req see
system.mem_ctrls.wrQLenPdf::25                  32898                       # What write queue length does an incoming req see
system.mem_ctrls.wrQLenPdf::26                  34744                       # What write queue length does an incoming req see
system.mem_ctrls.wrQLenPdf::27                  33871                       # What write queue length does an incoming req see
system.mem_ctrls.wrQLenPdf::28                  33836                       # What write queue length does an incoming req see
system.mem_ctrls.wrQLenPdf::29                  31025                       # What write queue length does an incoming req see
system.mem_ctrls.wrQLenPdf::30                  30803                       # What write queue length does an incoming req see
system.mem_ctrls.wrQLenPdf::31                  30580                       # What write queue length does an incoming req see
system.mem_ctrls.wrQLenPdf::32                  30307                       # What write queue length does an incoming req see
system.mem_ctrls.wrQLenPdf::33                   1533                       # What write queue length does an incoming req see
system.mem_ctrls.wrQLenPdf::34                   1262                       # What write queue length does an incoming req see
system.mem_ctrls.wrQLenPdf::35                   1038                       # What write queue length does an incoming req see
system.mem_ctrls.wrQLenPdf::36                    878                       # What write queue length does an incoming req see
system.mem_ctrls.wrQLenPdf::37                    760                       # What write queue length does an incoming req see
system.mem_ctrls.wrQLenPdf::38                    587                       # What write queue length does an incoming req see
system.mem_ctrls.wrQLenPdf::39                    485                       # What write queue length does an incoming req see
system.mem_ctrls.wrQLenPdf::40                    422                       # What write queue length does an incoming req see
system.mem_ctrls.wrQLenPdf::41                    405                       # What write queue length does an incoming req see
system.mem_ctrls.wrQLenPdf::42                    341                       # What write queue length does an incoming req see
system.mem_ctrls.wrQLenPdf::43                    333                       # What write queue length does an incoming req see
system.mem_ctrls.wrQLenPdf::44                    307                       # What write queue length does an incoming req see
system.mem_ctrls.wrQLenPdf::45                    285                       # What write queue length does an incoming req see
system.mem_ctrls.wrQLenPdf::46                    270                       # What write queue length does an incoming req see
system.mem_ctrls.wrQLenPdf::47                    240                       # What write queue length does an incoming req see
system.mem_ctrls.wrQLenPdf::48                    231                       # What write queue length does an incoming req see
system.mem_ctrls.wrQLenPdf::49                    226                       # What write queue length does an incoming req see
system.mem_ctrls.wrQLenPdf::50                    178                       # What write queue length does an incoming req see
system.mem_ctrls.wrQLenPdf::51                    181                       # What write queue length does an incoming req see
system.mem_ctrls.wrQLenPdf::52                    171                       # What write queue length does an incoming req see
system.mem_ctrls.wrQLenPdf::53                    185                       # What write queue length does an incoming req see
system.mem_ctrls.wrQLenPdf::54                    167                       # What write queue length does an incoming req see
system.mem_ctrls.wrQLenPdf::55                    161                       # What write queue length does an incoming req see
system.mem_ctrls.wrQLenPdf::56                    171                       # What write queue length does an incoming req see
system.mem_ctrls.wrQLenPdf::57                    182                       # What write queue length does an incoming req see
system.mem_ctrls.wrQLenPdf::58                    205                       # What write queue length does an incoming req see
system.mem_ctrls.wrQLenPdf::59                    179                       # What write queue length does an incoming req see
system.mem_ctrls.wrQLenPdf::60                    169                       # What write queue length does an incoming req see
system.mem_ctrls.wrQLenPdf::61                    149                       # What write queue length does an incoming req see
system.mem_ctrls.wrQLenPdf::62                    107                       # What write queue length does an incoming req see
system.mem_ctrls.wrQLenPdf::63                    136                       # What write queue length does an incoming req see
system.mem_ctrls.bytesPerActivate::samples      1038829                       # Bytes accessed per row activation
system.mem_ctrls.bytesPerActivate::mean    293.193324                       # Bytes accessed per row activation
system.mem_ctrls.bytesPerActivate::gmean   169.598291                       # Bytes accessed per row activation
system.mem_ctrls.bytesPerActivate::stdev   327.564972                       # Bytes accessed per row activation
system.mem_ctrls.bytesPerActivate::0-127       417741     40.21%     40.21% # Bytes accessed per row activation
system.mem_ctrls.bytesPerActivate::128-255       261857     25.21%     65.42% # Bytes accessed per row activation
system.mem_ctrls.bytesPerActivate::256-383        88003      8.47%     73.89% # Bytes accessed per row activation
system.mem_ctrls.bytesPerActivate::384-511        51609      4.97%     78.86% # Bytes accessed per row activation
system.mem_ctrls.bytesPerActivate::512-639        38826      3.74%     82.60% # Bytes accessed per row activation
system.mem_ctrls.bytesPerActivate::640-767        22610      2.18%     84.77% # Bytes accessed per row activation
system.mem_ctrls.bytesPerActivate::768-895        18942      1.82%     86.60% # Bytes accessed per row activation
system.mem_ctrls.bytesPerActivate::896-1023        13459      1.30%     87.89% # Bytes accessed per row activation
system.mem_ctrls.bytesPerActivate::1024-1151       125782     12.11%    100.00% # Bytes accessed per row activation
system.mem_ctrls.bytesPerActivate::total      1038829                       # Bytes accessed per row activation
system.mem_ctrls.rdPerTurnAround::samples        29280                       # Reads before turning the bus around for writes
system.mem_ctrls.rdPerTurnAround::mean     146.158402                       # Reads before turning the bus around for writes
system.mem_ctrls.rdPerTurnAround::stdev   6033.229109                       # Reads before turning the bus around for writes
system.mem_ctrls.rdPerTurnAround::0-32767        29279    100.00%    100.00% # Reads before turning the bus around for writes
system.mem_ctrls.rdPerTurnAround::1.01581e+06-1.04858e+06            1      0.00%    100.00% # Reads before turning the bus around for writes
system.mem_ctrls.rdPerTurnAround::total         29280                       # Reads before turning the bus around for writes
system.mem_ctrls.wrPerTurnAround::samples        29280                       # Writes before turning the bus around for reads
system.mem_ctrls.wrPerTurnAround::mean      16.374795                       # Writes before turning the bus around for reads
system.mem_ctrls.wrPerTurnAround::gmean     16.204436                       # Writes before turning the bus around for reads
system.mem_ctrls.wrPerTurnAround::stdev      4.725748                       # Writes before turning the bus around for reads
system.mem_ctrls.wrPerTurnAround::16-19         29009     99.07%     99.07% # Writes before turning the bus around for reads
system.mem_ctrls.wrPerTurnAround::20-23           109      0.37%     99.45% # Writes before turning the bus around for reads
system.mem_ctrls.wrPerTurnAround::24-27             7      0.02%     99.47% # Writes before turning the bus around for reads
system.mem_ctrls.wrPerTurnAround::28-31            54      0.18%     99.66% # Writes before turning the bus around for reads
system.mem_ctrls.wrPerTurnAround::32-35            10      0.03%     99.69% # Writes before turning the bus around for reads
system.mem_ctrls.wrPerTurnAround::36-39             5      0.02%     99.71% # Writes before turning the bus around for reads
system.mem_ctrls.wrPerTurnAround::44-47             4      0.01%     99.72% # Writes before turning the bus around for reads
system.mem_ctrls.wrPerTurnAround::48-51             3      0.01%     99.73% # Writes before turning the bus around for reads
system.mem_ctrls.wrPerTurnAround::56-59             1      0.00%     99.73% # Writes before turning the bus around for reads
system.mem_ctrls.wrPerTurnAround::64-67             1      0.00%     99.74% # Writes before turning the bus around for reads
system.mem_ctrls.wrPerTurnAround::68-71             3      0.01%     99.75% # Writes before turning the bus around for reads
system.mem_ctrls.wrPerTurnAround::72-75             3      0.01%     99.76% # Writes before turning the bus around for reads
system.mem_ctrls.wrPerTurnAround::76-79             2      0.01%     99.76% # Writes before turning the bus around for reads
system.mem_ctrls.wrPerTurnAround::80-83             5      0.02%     99.78% # Writes before turning the bus around for reads
system.mem_ctrls.wrPerTurnAround::84-87             3      0.01%     99.79% # Writes before turning the bus around for reads
system.mem_ctrls.wrPerTurnAround::88-91             2      0.01%     99.80% # Writes before turning the bus around for reads
system.mem_ctrls.wrPerTurnAround::92-95             2      0.01%     99.81% # Writes before turning the bus around for reads
system.mem_ctrls.wrPerTurnAround::96-99            43      0.15%     99.95% # Writes before turning the bus around for reads
system.mem_ctrls.wrPerTurnAround::100-103            4      0.01%     99.97% # Writes before turning the bus around for reads
system.mem_ctrls.wrPerTurnAround::104-107            1      0.00%     99.97% # Writes before turning the bus around for reads
system.mem_ctrls.wrPerTurnAround::132-135            1      0.00%     99.97% # Writes before turning the bus around for reads
system.mem_ctrls.wrPerTurnAround::144-147            3      0.01%     99.98% # Writes before turning the bus around for reads
system.mem_ctrls.wrPerTurnAround::152-155            2      0.01%     99.99% # Writes before turning the bus around for reads
system.mem_ctrls.wrPerTurnAround::188-191            1      0.00%     99.99% # Writes before turning the bus around for reads
system.mem_ctrls.wrPerTurnAround::224-227            2      0.01%    100.00% # Writes before turning the bus around for reads
system.mem_ctrls.wrPerTurnAround::total         29280                       # Writes before turning the bus around for reads
system.mem_ctrls.totQLat                  44100054026                       # Total ticks spent queuing
system.mem_ctrls.totMemAccLat            124342047776                       # Total ticks spent from burst creation until serviced by the DRAM
system.mem_ctrls.totBusLat                21397865000                       # Total ticks spent in databus transfers
system.mem_ctrls.avgQLat                     10304.78                       # Average queueing delay per DRAM burst
system.mem_ctrls.avgBusLat                    5000.00                       # Average bus latency per DRAM burst
system.mem_ctrls.avgMemAccLat                29054.78                       # Average memory access latency per DRAM burst
system.mem_ctrls.avgRdBW                       111.45                       # Average DRAM read bandwidth in MiByte/s
system.mem_ctrls.avgWrBW                        12.49                       # Average achieved write bandwidth in MiByte/s
system.mem_ctrls.avgRdBWSys                    112.44                       # Average system read bandwidth in MiByte/s
system.mem_ctrls.avgWrBWSys                     12.63                       # Average system write bandwidth in MiByte/s
system.mem_ctrls.peakBW                      12800.00                       # Theoretical peak bandwidth in MiByte/s
system.mem_ctrls.busUtil                         0.97                       # Data bus utilization in percentage
system.mem_ctrls.busUtilRead                     0.87                       # Data bus utilization in percentage for reads
system.mem_ctrls.busUtilWrite                    0.10                       # Data bus utilization in percentage for writes
system.mem_ctrls.avgRdQLen                       1.06                       # Average read queue length when enqueuing
system.mem_ctrls.avgWrQLen                      25.02                       # Average write queue length when enqueuing
system.mem_ctrls.readRowHits                  3381545                       # Number of row buffer hits during reads
system.mem_ctrls.writeRowHits                  338653                       # Number of row buffer hits during writes
system.mem_ctrls.readRowHitRate                 79.02                       # Row buffer hit rate for reads
system.mem_ctrls.writeRowHitRate                70.63                       # Row buffer hit rate for writes
system.mem_ctrls.avgGap                     511708.34                       # Average gap between requests
system.mem_ctrls.pageHitRate                    78.17                       # Row buffer hit rate, read and write combined
system.mem_ctrls.memoryStateTime::IDLE   2190696022500                       # Time in different power states
system.mem_ctrls.memoryStateTime::REF     82060680000                       # Time in different power states
system.mem_ctrls.memoryStateTime::PRE_PDN            0                       # Time in different power states
system.mem_ctrls.memoryStateTime::ACT    184724690750                       # Time in different power states
system.mem_ctrls.memoryStateTime::ACT_PDN            0                       # Time in different power states
system.mem_ctrls.actEnergy::0              3343742640                       # Energy for activate commands per rank (pJ)
system.mem_ctrls.actEnergy::1              4509797040                       # Energy for activate commands per rank (pJ)
system.mem_ctrls.preEnergy::0              1824462750                       # Energy for precharge commands per rank (pJ)
system.mem_ctrls.preEnergy::1              2460702750                       # Energy for precharge commands per rank (pJ)
system.mem_ctrls.readEnergy::0            15946873800                       # Energy for read commands per rank (pJ)
system.mem_ctrls.readEnergy::1            17433670800                       # Energy for read commands per rank (pJ)
system.mem_ctrls.writeEnergy::0            1601220960                       # Energy for write commands per rank (pJ)
system.mem_ctrls.writeEnergy::1            1505640960                       # Energy for write commands per rank (pJ)
system.mem_ctrls.refreshEnergy::0        160510690080                       # Energy for refresh commands per rank (pJ)
system.mem_ctrls.refreshEnergy::1        160510690080                       # Energy for refresh commands per rank (pJ)
system.mem_ctrls.actBackEnergy::0        157029891660                       # Energy for active background per rank (pJ)
system.mem_ctrls.actBackEnergy::1        160875483300                       # Energy for active background per rank (pJ)
system.mem_ctrls.preBackEnergy::0        1336743031500                       # Energy for precharge background per rank (pJ)
system.mem_ctrls.preBackEnergy::1        1333369705500                       # Energy for precharge background per rank (pJ)
system.mem_ctrls.totalEnergy::0          1676999913390                       # Total energy per rank (pJ)
system.mem_ctrls.totalEnergy::1          1680665690430                       # Total energy per rank (pJ)
system.mem_ctrls.averagePower::0           682.406077                       # Core power per rank (mW)
system.mem_ctrls.averagePower::1           683.897758                       # Core power per rank (mW)
system.membus.trans_dist::ReadReq             4106347                       # Transaction distribution
system.membus.trans_dist::ReadResp            4105947                       # Transaction distribution
system.membus.trans_dist::WriteReq              16758                       # Transaction distribution
system.membus.trans_dist::WriteResp             16758                       # Transaction distribution
system.membus.trans_dist::Writeback            440738                       # Transaction distribution
system.membus.trans_dist::WriteInvalidateReq        44256                       # Transaction distribution
system.membus.trans_dist::WriteInvalidateResp        44256                       # Transaction distribution
system.membus.trans_dist::UpgradeReq            53130                       # Transaction distribution
system.membus.trans_dist::SCUpgradeReq          26087                       # Transaction distribution
system.membus.trans_dist::UpgradeResp           79217                       # Transaction distribution
system.membus.trans_dist::ReadExReq            315423                       # Transaction distribution
system.membus.trans_dist::ReadExResp           315423                       # Transaction distribution
system.membus.trans_dist::BadAddressError          400                       # Transaction distribution
system.membus.pkt_count_system.iocache.mem_side::system.mem_ctrls.port        88929                       # Packet count per connected master and slave (bytes)
system.membus.pkt_count_system.iocache.mem_side::total        88929                       # Packet count per connected master and slave (bytes)
system.membus.pkt_count_system.cpu0.icache.mem_side::system.mem_ctrls.port      1796843                       # Packet count per connected master and slave (bytes)
system.membus.pkt_count_system.cpu0.icache.mem_side::total      1796843                       # Packet count per connected master and slave (bytes)
system.membus.pkt_count_system.cpu0.dcache.mem_side::system.bridge.slave        37856                       # Packet count per connected master and slave (bytes)
system.membus.pkt_count_system.cpu0.dcache.mem_side::system.mem_ctrls.port      5506769                       # Packet count per connected master and slave (bytes)
system.membus.pkt_count_system.cpu0.dcache.mem_side::system.membus.badaddr_responder.pio          680                       # Packet count per connected master and slave (bytes)
system.membus.pkt_count_system.cpu0.dcache.mem_side::total      5545305                       # Packet count per connected master and slave (bytes)
system.membus.pkt_count_system.cpu1.icache.mem_side::system.mem_ctrls.port      1307811                       # Packet count per connected master and slave (bytes)
system.membus.pkt_count_system.cpu1.icache.mem_side::total      1307811                       # Packet count per connected master and slave (bytes)
system.membus.pkt_count_system.cpu1.dcache.mem_side::system.bridge.slave        10218                       # Packet count per connected master and slave (bytes)
system.membus.pkt_count_system.cpu1.dcache.mem_side::system.mem_ctrls.port       659449                       # Packet count per connected master and slave (bytes)
system.membus.pkt_count_system.cpu1.dcache.mem_side::system.membus.badaddr_responder.pio          120                       # Packet count per connected master and slave (bytes)
system.membus.pkt_count_system.cpu1.dcache.mem_side::total       669787                       # Packet count per connected master and slave (bytes)
system.membus.pkt_count::total                9408675                       # Packet count per connected master and slave (bytes)
system.membus.pkt_size_system.iocache.mem_side::system.mem_ctrls.port      2845696                       # Cumulative packet size per connected master and slave (bytes)
system.membus.pkt_size_system.iocache.mem_side::total      2845696                       # Cumulative packet size per connected master and slave (bytes)
system.membus.pkt_size_system.cpu0.icache.mem_side::system.mem_ctrls.port     57437184                       # Cumulative packet size per connected master and slave (bytes)
system.membus.pkt_size_system.cpu0.icache.mem_side::total     57437184                       # Cumulative packet size per connected master and slave (bytes)
system.membus.pkt_size_system.cpu0.dcache.mem_side::system.bridge.slave        61147                       # Cumulative packet size per connected master and slave (bytes)
system.membus.pkt_size_system.cpu0.dcache.mem_side::system.mem_ctrls.port    183084160                       # Cumulative packet size per connected master and slave (bytes)
system.membus.pkt_size_system.cpu0.dcache.mem_side::total    183145307                       # Cumulative packet size per connected master and slave (bytes)
system.membus.pkt_size_system.cpu1.icache.mem_side::system.mem_ctrls.port     41846592                       # Cumulative packet size per connected master and slave (bytes)
system.membus.pkt_size_system.cpu1.icache.mem_side::total     41846592                       # Cumulative packet size per connected master and slave (bytes)
system.membus.pkt_size_system.cpu1.dcache.mem_side::system.bridge.slave        36804                       # Cumulative packet size per connected master and slave (bytes)
system.membus.pkt_size_system.cpu1.dcache.mem_side::system.mem_ctrls.port     22146624                       # Cumulative packet size per connected master and slave (bytes)
system.membus.pkt_size_system.cpu1.dcache.mem_side::total     22183428                       # Cumulative packet size per connected master and slave (bytes)
system.membus.pkt_size::total               307458207                       # Cumulative packet size per connected master and slave (bytes)
system.membus.snoops                           156065                       # Total snoops (count)
system.membus.snoop_fanout::samples           4978753                       # Request fanout histogram
system.membus.snoop_fanout::mean                    4                       # Request fanout histogram
system.membus.snoop_fanout::stdev                   0                       # Request fanout histogram
system.membus.snoop_fanout::underflows              0      0.00%      0.00% # Request fanout histogram
system.membus.snoop_fanout::0                       0      0.00%      0.00% # Request fanout histogram
system.membus.snoop_fanout::1                       0      0.00%      0.00% # Request fanout histogram
system.membus.snoop_fanout::2                       0      0.00%      0.00% # Request fanout histogram
system.membus.snoop_fanout::3                       0      0.00%      0.00% # Request fanout histogram
system.membus.snoop_fanout::4                 4978753    100.00%    100.00% # Request fanout histogram
system.membus.snoop_fanout::5                       0      0.00%    100.00% # Request fanout histogram
system.membus.snoop_fanout::overflows               0      0.00%    100.00% # Request fanout histogram
system.membus.snoop_fanout::min_value               4                       # Request fanout histogram
system.membus.snoop_fanout::max_value               4                       # Request fanout histogram
system.membus.snoop_fanout::total             4978753                       # Request fanout histogram
system.membus.reqLayer0.occupancy            44602999                       # Layer occupancy (ticks)
system.membus.reqLayer0.utilization               0.0                       # Layer utilization (%)
system.membus.reqLayer1.occupancy         10155375705                       # Layer occupancy (ticks)
system.membus.reqLayer1.utilization               0.4                       # Layer utilization (%)
system.membus.reqLayer2.occupancy              485500                       # Layer occupancy (ticks)
system.membus.reqLayer2.utilization               0.0                       # Layer utilization (%)
system.membus.respLayer1.occupancy           46406274                       # Layer occupancy (ticks)
system.membus.respLayer1.utilization              0.0                       # Layer utilization (%)
system.membus.respLayer2.occupancy         8488600242                       # Layer occupancy (ticks)
system.membus.respLayer2.utilization              0.3                       # Layer utilization (%)
system.membus.respLayer3.occupancy        24469329067                       # Layer occupancy (ticks)
system.membus.respLayer3.utilization              1.0                       # Layer utilization (%)
system.membus.respLayer4.occupancy         6168418360                       # Layer occupancy (ticks)
system.membus.respLayer4.utilization              0.3                       # Layer utilization (%)
system.membus.respLayer5.occupancy         2582333067                       # Layer occupancy (ticks)
system.membus.respLayer5.utilization              0.1                       # Layer utilization (%)
system.iocache.tags.replacements                44428                       # number of replacements
system.iocache.tags.tagsinuse                0.240393                       # Cycle average of tags in use
system.iocache.tags.total_refs                      0                       # Total number of references to valid blocks.
system.iocache.tags.sampled_refs                44428                       # Sample count of references to valid blocks.
system.iocache.tags.avg_refs                        0                       # Average number of references to valid blocks.
system.iocache.tags.warmup_cycle         2419620196000                       # Cycle when the warmup percentage was hit.
system.iocache.tags.occ_blocks::tsunami.ide     0.240393                       # Average occupied blocks per requestor
system.iocache.tags.occ_percent::tsunami.ide     0.015025                       # Average percentage of cache occupancy
system.iocache.tags.occ_percent::total       0.015025                       # Average percentage of cache occupancy
system.iocache.tags.occ_task_id_blocks::1023           16                       # Occupied blocks per task id
system.iocache.tags.age_task_id_blocks_1023::3           16                       # Occupied blocks per task id
system.iocache.tags.occ_task_id_percent::1023            1                       # Percentage of cache occupancy per task id
system.iocache.tags.tag_accesses               400289                       # Number of tag accesses
system.iocache.tags.data_accesses              400289                       # Number of data accesses
system.iocache.WriteInvalidateReq_hits::tsunami.ide        44256                       # number of WriteInvalidateReq hits
system.iocache.WriteInvalidateReq_hits::total        44256                       # number of WriteInvalidateReq hits
system.iocache.ReadReq_misses::tsunami.ide          209                       # number of ReadReq misses
system.iocache.ReadReq_misses::total              209                       # number of ReadReq misses
system.iocache.WriteInvalidateReq_misses::tsunami.ide           13                       # number of WriteInvalidateReq misses
system.iocache.WriteInvalidateReq_misses::total           13                       # number of WriteInvalidateReq misses
system.iocache.demand_misses::tsunami.ide          209                       # number of demand (read+write) misses
system.iocache.demand_misses::total               209                       # number of demand (read+write) misses
system.iocache.overall_misses::tsunami.ide          209                       # number of overall misses
system.iocache.overall_misses::total              209                       # number of overall misses
system.iocache.ReadReq_miss_latency::tsunami.ide     37582102                       # number of ReadReq miss cycles
system.iocache.ReadReq_miss_latency::total     37582102                       # number of ReadReq miss cycles
system.iocache.demand_miss_latency::tsunami.ide     37582102                       # number of demand (read+write) miss cycles
system.iocache.demand_miss_latency::total     37582102                       # number of demand (read+write) miss cycles
system.iocache.overall_miss_latency::tsunami.ide     37582102                       # number of overall miss cycles
system.iocache.overall_miss_latency::total     37582102                       # number of overall miss cycles
system.iocache.ReadReq_accesses::tsunami.ide          209                       # number of ReadReq accesses(hits+misses)
system.iocache.ReadReq_accesses::total            209                       # number of ReadReq accesses(hits+misses)
system.iocache.WriteInvalidateReq_accesses::tsunami.ide        44269                       # number of WriteInvalidateReq accesses(hits+misses)
system.iocache.WriteInvalidateReq_accesses::total        44269                       # number of WriteInvalidateReq accesses(hits+misses)
system.iocache.demand_accesses::tsunami.ide          209                       # number of demand (read+write) accesses
system.iocache.demand_accesses::total             209                       # number of demand (read+write) accesses
system.iocache.overall_accesses::tsunami.ide          209                       # number of overall (read+write) accesses
system.iocache.overall_accesses::total            209                       # number of overall (read+write) accesses
system.iocache.ReadReq_miss_rate::tsunami.ide            1                       # miss rate for ReadReq accesses
system.iocache.ReadReq_miss_rate::total             1                       # miss rate for ReadReq accesses
system.iocache.WriteInvalidateReq_miss_rate::tsunami.ide     0.000294                       # miss rate for WriteInvalidateReq accesses
system.iocache.WriteInvalidateReq_miss_rate::total     0.000294                       # miss rate for WriteInvalidateReq accesses
system.iocache.demand_miss_rate::tsunami.ide            1                       # miss rate for demand accesses
system.iocache.demand_miss_rate::total              1                       # miss rate for demand accesses
system.iocache.overall_miss_rate::tsunami.ide            1                       # miss rate for overall accesses
system.iocache.overall_miss_rate::total             1                       # miss rate for overall accesses
system.iocache.ReadReq_avg_miss_latency::tsunami.ide 179818.669856                       # average ReadReq miss latency
system.iocache.ReadReq_avg_miss_latency::total 179818.669856                       # average ReadReq miss latency
system.iocache.demand_avg_miss_latency::tsunami.ide 179818.669856                       # average overall miss latency
system.iocache.demand_avg_miss_latency::total 179818.669856                       # average overall miss latency
system.iocache.overall_avg_miss_latency::tsunami.ide 179818.669856                       # average overall miss latency
system.iocache.overall_avg_miss_latency::total 179818.669856                       # average overall miss latency
system.iocache.blocked_cycles::no_mshrs           524                       # number of cycles access was blocked
system.iocache.blocked_cycles::no_targets            0                       # number of cycles access was blocked
system.iocache.blocked::no_mshrs                   45                       # number of cycles access was blocked
system.iocache.blocked::no_targets                  0                       # number of cycles access was blocked
system.iocache.avg_blocked_cycles::no_mshrs    11.644444                       # average number of cycles each access was blocked
system.iocache.avg_blocked_cycles::no_targets          nan                       # average number of cycles each access was blocked
system.iocache.fast_writes                      44256                       # number of fast writes performed
system.iocache.cache_copies                         0                       # number of cache copies performed
system.iocache.ReadReq_mshr_misses::tsunami.ide          209                       # number of ReadReq MSHR misses
system.iocache.ReadReq_mshr_misses::total          209                       # number of ReadReq MSHR misses
system.iocache.WriteInvalidateReq_mshr_misses::tsunami.ide        44256                       # number of WriteInvalidateReq MSHR misses
system.iocache.WriteInvalidateReq_mshr_misses::total        44256                       # number of WriteInvalidateReq MSHR misses
system.iocache.demand_mshr_misses::tsunami.ide          209                       # number of demand (read+write) MSHR misses
system.iocache.demand_mshr_misses::total          209                       # number of demand (read+write) MSHR misses
system.iocache.overall_mshr_misses::tsunami.ide          209                       # number of overall MSHR misses
system.iocache.overall_mshr_misses::total          209                       # number of overall MSHR misses
system.iocache.ReadReq_mshr_miss_latency::tsunami.ide     26653104                       # number of ReadReq MSHR miss cycles
system.iocache.ReadReq_mshr_miss_latency::total     26653104                       # number of ReadReq MSHR miss cycles
system.iocache.WriteInvalidateReq_mshr_miss_latency::tsunami.ide   3025668439                       # number of WriteInvalidateReq MSHR miss cycles
system.iocache.WriteInvalidateReq_mshr_miss_latency::total   3025668439                       # number of WriteInvalidateReq MSHR miss cycles
system.iocache.demand_mshr_miss_latency::tsunami.ide     26653104                       # number of demand (read+write) MSHR miss cycles
system.iocache.demand_mshr_miss_latency::total     26653104                       # number of demand (read+write) MSHR miss cycles
system.iocache.overall_mshr_miss_latency::tsunami.ide     26653104                       # number of overall MSHR miss cycles
system.iocache.overall_mshr_miss_latency::total     26653104                       # number of overall MSHR miss cycles
system.iocache.ReadReq_mshr_miss_rate::tsunami.ide            1                       # mshr miss rate for ReadReq accesses
system.iocache.ReadReq_mshr_miss_rate::total            1                       # mshr miss rate for ReadReq accesses
system.iocache.WriteInvalidateReq_mshr_miss_rate::tsunami.ide     0.999706                       # mshr miss rate for WriteInvalidateReq accesses
system.iocache.WriteInvalidateReq_mshr_miss_rate::total     0.999706                       # mshr miss rate for WriteInvalidateReq accesses
system.iocache.demand_mshr_miss_rate::tsunami.ide            1                       # mshr miss rate for demand accesses
system.iocache.demand_mshr_miss_rate::total            1                       # mshr miss rate for demand accesses
system.iocache.overall_mshr_miss_rate::tsunami.ide            1                       # mshr miss rate for overall accesses
system.iocache.overall_mshr_miss_rate::total            1                       # mshr miss rate for overall accesses
system.iocache.ReadReq_avg_mshr_miss_latency::tsunami.ide 127526.813397                       # average ReadReq mshr miss latency
system.iocache.ReadReq_avg_mshr_miss_latency::total 127526.813397                       # average ReadReq mshr miss latency
system.iocache.WriteInvalidateReq_avg_mshr_miss_latency::tsunami.ide 68367.417729                       # average WriteInvalidateReq mshr miss latency
system.iocache.WriteInvalidateReq_avg_mshr_miss_latency::total 68367.417729                       # average WriteInvalidateReq mshr miss latency
system.iocache.demand_avg_mshr_miss_latency::tsunami.ide 127526.813397                       # average overall mshr miss latency
system.iocache.demand_avg_mshr_miss_latency::total 127526.813397                       # average overall mshr miss latency
system.iocache.overall_avg_mshr_miss_latency::tsunami.ide 127526.813397                       # average overall mshr miss latency
system.iocache.overall_avg_mshr_miss_latency::total 127526.813397                       # average overall mshr miss latency
system.iocache.no_allocate_misses                   0                       # Number of misses that were no-allocate
system.disk0.dma_read_full_pages                    0                       # Number of full page size DMA reads (not PRD).
system.disk0.dma_read_bytes                      4096                       # Number of bytes transfered via DMA reads (not PRD).
system.disk0.dma_read_txs                           1                       # Number of DMA read transactions (not PRD).
system.disk0.dma_write_full_pages                 326                       # Number of full page size DMA writes.
system.disk0.dma_write_bytes                  2824192                       # Number of bytes transfered via DMA writes.
system.disk0.dma_write_txs                        365                       # Number of DMA write transactions.
system.disk2.dma_read_full_pages                    0                       # Number of full page size DMA reads (not PRD).
system.disk2.dma_read_bytes                         0                       # Number of bytes transfered via DMA reads (not PRD).
system.disk2.dma_read_txs                           0                       # Number of DMA read transactions (not PRD).
system.disk2.dma_write_full_pages                   1                       # Number of full page size DMA writes.
system.disk2.dma_write_bytes                     8192                       # Number of bytes transfered via DMA writes.
system.disk2.dma_write_txs                          1                       # Number of DMA write transactions.
system.cpu0.branchPred.lookups               20920163                       # Number of BP lookups
system.cpu0.branchPred.condPredicted         17560155                       # Number of conditional branches predicted
system.cpu0.branchPred.condIncorrect           442473                       # Number of conditional branches incorrect
system.cpu0.branchPred.BTBLookups            13069119                       # Number of BTB lookups
system.cpu0.branchPred.BTBHits                8553801                       # Number of BTB hits
system.cpu0.branchPred.BTBCorrect                   0                       # Number of correct BTB predictions (this stat may not work properly.
system.cpu0.branchPred.BTBHitPct            65.450479                       # BTB Hit Percentage
system.cpu0.branchPred.usedRAS                1396783                       # Number of times the RAS was used to get a target.
system.cpu0.branchPred.RASInCorrect             25843                       # Number of incorrect RAS predictions.
system.cpu_voltage_domain.voltage                   1                       # Voltage in Volts
system.cpu_clk_domain.clock                       500                       # Clock period in ticks
system.cpu0.dtb.fetch_hits                          0                       # ITB hits
system.cpu0.dtb.fetch_misses                        0                       # ITB misses
system.cpu0.dtb.fetch_acv                           0                       # ITB acv
system.cpu0.dtb.fetch_accesses                      0                       # ITB accesses
system.cpu0.dtb.read_hits                    14174944                       # DTB read hits
system.cpu0.dtb.read_misses                     58902                       # DTB read misses
system.cpu0.dtb.read_acv                           73                       # DTB read access violations
system.cpu0.dtb.read_accesses                  674871                       # DTB read accesses
system.cpu0.dtb.write_hits                    6150836                       # DTB write hits
system.cpu0.dtb.write_misses                     9786                       # DTB write misses
system.cpu0.dtb.write_acv                         229                       # DTB write access violations
system.cpu0.dtb.write_accesses                 258604                       # DTB write accesses
system.cpu0.dtb.data_hits                    20325780                       # DTB hits
system.cpu0.dtb.data_misses                     68688                       # DTB misses
system.cpu0.dtb.data_acv                          302                       # DTB access violations
system.cpu0.dtb.data_accesses                  933475                       # DTB accesses
system.cpu0.itb.fetch_hits                    1428788                       # ITB hits
system.cpu0.itb.fetch_misses                    15763                       # ITB misses
system.cpu0.itb.fetch_acv                         433                       # ITB acv
system.cpu0.itb.fetch_accesses                1444551                       # ITB accesses
system.cpu0.itb.read_hits                           0                       # DTB read hits
system.cpu0.itb.read_misses                         0                       # DTB read misses
system.cpu0.itb.read_acv                            0                       # DTB read access violations
system.cpu0.itb.read_accesses                       0                       # DTB read accesses
system.cpu0.itb.write_hits                          0                       # DTB write hits
system.cpu0.itb.write_misses                        0                       # DTB write misses
system.cpu0.itb.write_acv                           0                       # DTB write access violations
system.cpu0.itb.write_accesses                      0                       # DTB write accesses
system.cpu0.itb.data_hits                           0                       # DTB hits
system.cpu0.itb.data_misses                         0                       # DTB misses
system.cpu0.itb.data_acv                            0                       # DTB access violations
system.cpu0.itb.data_accesses                       0                       # DTB accesses
system.cpu0.numCycles                       298856257                       # number of cpu cycles simulated
system.cpu0.numWorkItemsStarted                     0                       # number of work items this cpu started
system.cpu0.numWorkItemsCompleted                   0                       # number of work items this cpu completed
system.cpu0.fetch.icacheStallCycles          39242505                       # Number of cycles fetch is stalled on an Icache miss
system.cpu0.fetch.Insts                      95339734                       # Number of instructions fetch has processed
system.cpu0.fetch.Branches                   20920163                       # Number of branches that fetch encountered
system.cpu0.fetch.predictedBranches           9950584                       # Number of branches that fetch has predicted taken
system.cpu0.fetch.Cycles                    196735629                       # Number of cycles fetch has run and was not squashing or blocked
system.cpu0.fetch.SquashCycles                1276642                       # Number of cycles fetch has spent squashing
system.cpu0.fetch.TlbCycles                      1622                       # Number of cycles fetch has spent waiting for tlb
system.cpu0.fetch.MiscStallCycles               75752                       # Number of cycles fetch has spent waiting on interrupts, or bad addresses, or out of MSHRs
system.cpu0.fetch.PendingTrapStallCycles       894837                       # Number of stall cycles due to pending traps
system.cpu0.fetch.PendingQuiesceStallCycles       494324                       # Number of stall cycles due to pending quiesce instructions
system.cpu0.fetch.IcacheWaitRetryStallCycles          688                       # Number of stall cycles due to full MSHR
system.cpu0.fetch.CacheLines                 12071862                       # Number of cache lines fetched
system.cpu0.fetch.IcacheSquashes               317132                       # Number of outstanding Icache misses that were squashed
system.cpu0.fetch.ItlbSquashes                      8                       # Number of outstanding ITLB misses that were squashed
system.cpu0.fetch.rateDist::samples         238083678                       # Number of instructions fetched each cycle (Total)
system.cpu0.fetch.rateDist::mean             0.400446                       # Number of instructions fetched each cycle (Total)
system.cpu0.fetch.rateDist::stdev            1.516611                       # Number of instructions fetched each cycle (Total)
system.cpu0.fetch.rateDist::underflows              0      0.00%      0.00% # Number of instructions fetched each cycle (Total)
system.cpu0.fetch.rateDist::0               217998768     91.56%     91.56% # Number of instructions fetched each cycle (Total)
system.cpu0.fetch.rateDist::1                 2537584      1.07%     92.63% # Number of instructions fetched each cycle (Total)
system.cpu0.fetch.rateDist::2                 2863713      1.20%     93.83% # Number of instructions fetched each cycle (Total)
system.cpu0.fetch.rateDist::3                 1602913      0.67%     94.51% # Number of instructions fetched each cycle (Total)
system.cpu0.fetch.rateDist::4                 3934500      1.65%     96.16% # Number of instructions fetched each cycle (Total)
system.cpu0.fetch.rateDist::5                  910258      0.38%     96.54% # Number of instructions fetched each cycle (Total)
system.cpu0.fetch.rateDist::6                 1616035      0.68%     97.22% # Number of instructions fetched each cycle (Total)
system.cpu0.fetch.rateDist::7                  678771      0.29%     97.50% # Number of instructions fetched each cycle (Total)
system.cpu0.fetch.rateDist::8                 5941136      2.50%    100.00% # Number of instructions fetched each cycle (Total)
system.cpu0.fetch.rateDist::overflows               0      0.00%    100.00% # Number of instructions fetched each cycle (Total)
system.cpu0.fetch.rateDist::min_value               0                       # Number of instructions fetched each cycle (Total)
system.cpu0.fetch.rateDist::max_value               8                       # Number of instructions fetched each cycle (Total)
system.cpu0.fetch.rateDist::total           238083678                       # Number of instructions fetched each cycle (Total)
system.cpu0.fetch.branchRate                 0.070001                       # Number of branch fetches per cycle
system.cpu0.fetch.rate                       0.319015                       # Number of inst fetches per cycle
system.cpu0.decode.IdleCycles                28583257                       # Number of cycles decode is idle
system.cpu0.decode.BlockedCycles            194716870                       # Number of cycles decode is blocked
system.cpu0.decode.RunCycles                 10593587                       # Number of cycles decode is running
system.cpu0.decode.UnblockCycles              3602242                       # Number of cycles decode is unblocking
system.cpu0.decode.SquashCycles                587721                       # Number of cycles decode is squashing
system.cpu0.decode.BranchResolved              684382                       # Number of times decode resolved a branch
system.cpu0.decode.BranchMispred                51076                       # Number of times decode detected a branch misprediction
system.cpu0.decode.DecodedInsts              86598144                       # Number of instructions handled by decode
system.cpu0.decode.SquashedInsts               143789                       # Number of squashed instructions handled by decode
system.cpu0.rename.SquashCycles                587721                       # Number of cycles rename is squashing
system.cpu0.rename.IdleCycles                30025058                       # Number of cycles rename is idle
system.cpu0.rename.BlockCycles              151065957                       # Number of cycles rename is blocking
system.cpu0.rename.serializeStallCycles      28167977                       # count of cycles rename stalled for serializing inst
system.cpu0.rename.RunCycles                 12449934                       # Number of cycles rename is running
system.cpu0.rename.UnblockCycles             15787029                       # Number of cycles rename is unblocking
system.cpu0.rename.RenamedInsts              84283523                       # Number of instructions processed by rename
system.cpu0.rename.ROBFullEvents                94747                       # Number of times rename has blocked due to ROB full
system.cpu0.rename.IQFullEvents               7989942                       # Number of times rename has blocked due to IQ full
system.cpu0.rename.LQFullEvents               1673865                       # Number of times rename has blocked due to LQ full
system.cpu0.rename.SQFullEvents               4426643                       # Number of times rename has blocked due to SQ full
system.cpu0.rename.RenamedOperands           61410508                       # Number of destination operands rename has renamed
system.cpu0.rename.RenameLookups            108457087                       # Number of register rename lookups that rename has made
system.cpu0.rename.int_rename_lookups       108337006                       # Number of integer rename lookups
system.cpu0.rename.fp_rename_lookups           111280                       # Number of floating rename lookups
system.cpu0.rename.CommittedMaps             53879370                       # Number of HB maps that are committed
system.cpu0.rename.UndoneMaps                 7531138                       # Number of HB maps that are undone due to squashing
system.cpu0.rename.serializingInsts           1325464                       # count of serializing insts renamed
system.cpu0.rename.tempSerializingInsts        233042                       # count of temporary serializing insts renamed
system.cpu0.rename.skidInsts                 23643526                       # count of insts added to the skid buffer
system.cpu0.memDep0.insertedLoads            14382942                       # Number of loads inserted to the mem dependence unit.
system.cpu0.memDep0.insertedStores            6491360                       # Number of stores inserted to the mem dependence unit.
system.cpu0.memDep0.conflictingLoads          1720200                       # Number of conflicting loads.
system.cpu0.memDep0.conflictingStores         1099162                       # Number of conflicting stores.
system.cpu0.iq.iqInstsAdded                  79165631                       # Number of instructions added to the IQ (excludes non-spec)
system.cpu0.iq.iqNonSpecInstsAdded            1858309                       # Number of non-speculative instructions added to the IQ
system.cpu0.iq.iqInstsIssued                 77334369                       # Number of instructions issued
system.cpu0.iq.iqSquashedInstsIssued            71922                       # Number of squashed instructions issued
system.cpu0.iq.iqSquashedInstsExamined        9266606                       # Number of squashed instructions iterated over during squash; mainly for profiling
system.cpu0.iq.iqSquashedOperandsExamined      4740368                       # Number of squashed operands that are examined and possibly removed from graph
system.cpu0.iq.iqSquashedNonSpecRemoved       1164031                       # Number of squashed non-spec instructions that were removed
system.cpu0.iq.issued_per_cycle::samples    238083678                       # Number of insts issued each cycle
system.cpu0.iq.issued_per_cycle::mean        0.324820                       # Number of insts issued each cycle
system.cpu0.iq.issued_per_cycle::stdev       1.002140                       # Number of insts issued each cycle
system.cpu0.iq.issued_per_cycle::underflows            0      0.00%      0.00% # Number of insts issued each cycle
system.cpu0.iq.issued_per_cycle::0          203687583     85.55%     85.55% # Number of insts issued each cycle
system.cpu0.iq.issued_per_cycle::1           16767190      7.04%     92.60% # Number of insts issued each cycle
system.cpu0.iq.issued_per_cycle::2            6462022      2.71%     95.31% # Number of insts issued each cycle
system.cpu0.iq.issued_per_cycle::3            3669116      1.54%     96.85% # Number of insts issued each cycle
system.cpu0.iq.issued_per_cycle::4            3882945      1.63%     98.48% # Number of insts issued each cycle
system.cpu0.iq.issued_per_cycle::5            1684553      0.71%     99.19% # Number of insts issued each cycle
system.cpu0.iq.issued_per_cycle::6            1110823      0.47%     99.66% # Number of insts issued each cycle
system.cpu0.iq.issued_per_cycle::7             539264      0.23%     99.88% # Number of insts issued each cycle
system.cpu0.iq.issued_per_cycle::8             280182      0.12%    100.00% # Number of insts issued each cycle
system.cpu0.iq.issued_per_cycle::overflows            0      0.00%    100.00% # Number of insts issued each cycle
system.cpu0.iq.issued_per_cycle::min_value            0                       # Number of insts issued each cycle
system.cpu0.iq.issued_per_cycle::max_value            8                       # Number of insts issued each cycle
system.cpu0.iq.issued_per_cycle::total      238083678                       # Number of insts issued each cycle
system.cpu0.iq.fu_full::No_OpClass                  0      0.00%      0.00% # attempts to use FU when none available
system.cpu0.iq.fu_full::IntAlu                 354060     27.44%     27.44% # attempts to use FU when none available
system.cpu0.iq.fu_full::IntMult                     6      0.00%     27.44% # attempts to use FU when none available
system.cpu0.iq.fu_full::IntDiv                      0      0.00%     27.44% # attempts to use FU when none available
system.cpu0.iq.fu_full::FloatAdd                    0      0.00%     27.44% # attempts to use FU when none available
system.cpu0.iq.fu_full::FloatCmp                    0      0.00%     27.44% # attempts to use FU when none available
system.cpu0.iq.fu_full::FloatCvt                    0      0.00%     27.44% # attempts to use FU when none available
system.cpu0.iq.fu_full::FloatMult                   0      0.00%     27.44% # attempts to use FU when none available
system.cpu0.iq.fu_full::FloatDiv                    0      0.00%     27.44% # attempts to use FU when none available
system.cpu0.iq.fu_full::FloatSqrt                   0      0.00%     27.44% # attempts to use FU when none available
system.cpu0.iq.fu_full::SimdAdd                     0      0.00%     27.44% # attempts to use FU when none available
system.cpu0.iq.fu_full::SimdAddAcc                  0      0.00%     27.44% # attempts to use FU when none available
system.cpu0.iq.fu_full::SimdAlu                     0      0.00%     27.44% # attempts to use FU when none available
system.cpu0.iq.fu_full::SimdCmp                     0      0.00%     27.44% # attempts to use FU when none available
system.cpu0.iq.fu_full::SimdCvt                     0      0.00%     27.44% # attempts to use FU when none available
system.cpu0.iq.fu_full::SimdMisc                    0      0.00%     27.44% # attempts to use FU when none available
system.cpu0.iq.fu_full::SimdMult                    0      0.00%     27.44% # attempts to use FU when none available
system.cpu0.iq.fu_full::SimdMultAcc                 0      0.00%     27.44% # attempts to use FU when none available
system.cpu0.iq.fu_full::SimdShift                   0      0.00%     27.44% # attempts to use FU when none available
system.cpu0.iq.fu_full::SimdShiftAcc                0      0.00%     27.44% # attempts to use FU when none available
system.cpu0.iq.fu_full::SimdSqrt                    0      0.00%     27.44% # attempts to use FU when none available
system.cpu0.iq.fu_full::SimdFloatAdd                0      0.00%     27.44% # attempts to use FU when none available
system.cpu0.iq.fu_full::SimdFloatAlu                0      0.00%     27.44% # attempts to use FU when none available
system.cpu0.iq.fu_full::SimdFloatCmp                0      0.00%     27.44% # attempts to use FU when none available
system.cpu0.iq.fu_full::SimdFloatCvt                0      0.00%     27.44% # attempts to use FU when none available
system.cpu0.iq.fu_full::SimdFloatDiv                0      0.00%     27.44% # attempts to use FU when none available
system.cpu0.iq.fu_full::SimdFloatMisc               0      0.00%     27.44% # attempts to use FU when none available
system.cpu0.iq.fu_full::SimdFloatMult               0      0.00%     27.44% # attempts to use FU when none available
system.cpu0.iq.fu_full::SimdFloatMultAcc            0      0.00%     27.44% # attempts to use FU when none available
system.cpu0.iq.fu_full::SimdFloatSqrt               0      0.00%     27.44% # attempts to use FU when none available
system.cpu0.iq.fu_full::MemRead                578580     44.84%     72.27% # attempts to use FU when none available
system.cpu0.iq.fu_full::MemWrite               357807     27.73%    100.00% # attempts to use FU when none available
system.cpu0.iq.fu_full::IprAccess                   0      0.00%    100.00% # attempts to use FU when none available
system.cpu0.iq.fu_full::InstPrefetch                0      0.00%    100.00% # attempts to use FU when none available
system.cpu0.iq.FU_type_0::No_OpClass             4679      0.01%      0.01% # Type of FU issued
system.cpu0.iq.FU_type_0::IntAlu             55499847     71.77%     71.77% # Type of FU issued
system.cpu0.iq.FU_type_0::IntMult              130220      0.17%     71.94% # Type of FU issued
system.cpu0.iq.FU_type_0::IntDiv                    0      0.00%     71.94% # Type of FU issued
system.cpu0.iq.FU_type_0::FloatAdd              66470      0.09%     72.03% # Type of FU issued
system.cpu0.iq.FU_type_0::FloatCmp                  0      0.00%     72.03% # Type of FU issued
system.cpu0.iq.FU_type_0::FloatCvt                  0      0.00%     72.03% # Type of FU issued
system.cpu0.iq.FU_type_0::FloatMult                 0      0.00%     72.03% # Type of FU issued
system.cpu0.iq.FU_type_0::FloatDiv               2269      0.00%     72.03% # Type of FU issued
system.cpu0.iq.FU_type_0::FloatSqrt                 0      0.00%     72.03% # Type of FU issued
system.cpu0.iq.FU_type_0::SimdAdd                   0      0.00%     72.03% # Type of FU issued
system.cpu0.iq.FU_type_0::SimdAddAcc                0      0.00%     72.03% # Type of FU issued
system.cpu0.iq.FU_type_0::SimdAlu                   0      0.00%     72.03% # Type of FU issued
system.cpu0.iq.FU_type_0::SimdCmp                   0      0.00%     72.03% # Type of FU issued
system.cpu0.iq.FU_type_0::SimdCvt                   0      0.00%     72.03% # Type of FU issued
system.cpu0.iq.FU_type_0::SimdMisc                  0      0.00%     72.03% # Type of FU issued
system.cpu0.iq.FU_type_0::SimdMult                  0      0.00%     72.03% # Type of FU issued
system.cpu0.iq.FU_type_0::SimdMultAcc               0      0.00%     72.03% # Type of FU issued
system.cpu0.iq.FU_type_0::SimdShift                 0      0.00%     72.03% # Type of FU issued
system.cpu0.iq.FU_type_0::SimdShiftAcc              0      0.00%     72.03% # Type of FU issued
system.cpu0.iq.FU_type_0::SimdSqrt                  0      0.00%     72.03% # Type of FU issued
system.cpu0.iq.FU_type_0::SimdFloatAdd              0      0.00%     72.03% # Type of FU issued
[...]
system.cpu1.dcache.ReadReq_mshr_misses::cpu1.data         4741                       # number of ReadReq MSHR misses
system.cpu1.dcache.ReadReq_mshr_misses::total         4741                       # number of ReadReq MSHR misses
system.cpu1.dcache.WriteReq_mshr_misses::cpu1.data         6725                       # number of WriteReq MSHR misses
system.cpu1.dcache.WriteReq_mshr_misses::total         6725                       # number of WriteReq MSHR misses
system.cpu1.dcache.LoadLockedReq_mshr_misses::cpu1.data          125                       # number of LoadLockedReq MSHR misses
system.cpu1.dcache.LoadLockedReq_mshr_misses::total          125                       # number of LoadLockedReq MSHR misses
system.cpu1.dcache.StoreCondReq_mshr_misses::cpu1.data           22                       # number of StoreCondReq MSHR misses
system.cpu1.dcache.StoreCondReq_mshr_misses::total           22                       # number of StoreCondReq MSHR misses
system.cpu1.dcache.demand_mshr_misses::cpu1.data        11466                       # number of demand (read+write) MSHR misses
system.cpu1.dcache.demand_mshr_misses::total        11466                       # number of demand (read+write) MSHR misses
system.cpu1.dcache.overall_mshr_misses::cpu1.data        11466                       # number of overall MSHR misses
system.cpu1.dcache.overall_mshr_misses::total        11466                       # number of overall MSHR misses
system.cpu1.dcache.ReadReq_mshr_miss_latency::cpu1.data    284260503                       # number of ReadReq MSHR miss cycles
system.cpu1.dcache.ReadReq_mshr_miss_latency::total    284260503                       # number of ReadReq MSHR miss cycles
system.cpu1.dcache.WriteReq_mshr_miss_latency::cpu1.data    465630697                       # number of WriteReq MSHR miss cycles
system.cpu1.dcache.WriteReq_mshr_miss_latency::total    465630697                       # number of WriteReq MSHR miss cycles
system.cpu1.dcache.LoadLockedReq_mshr_miss_latency::cpu1.data      6612000                       # number of LoadLockedReq MSHR miss cycles
system.cpu1.dcache.LoadLockedReq_mshr_miss_latency::total      6612000                       # number of LoadLockedReq MSHR miss cycles
system.cpu1.dcache.StoreCondReq_mshr_miss_latency::cpu1.data        59003                       # number of StoreCondReq MSHR miss cycles
system.cpu1.dcache.StoreCondReq_mshr_miss_latency::total        59003                       # number of StoreCondReq MSHR miss cycles
system.cpu1.dcache.demand_mshr_miss_latency::cpu1.data    749891200                       # number of demand (read+write) MSHR miss cycles
system.cpu1.dcache.demand_mshr_miss_latency::total    749891200                       # number of demand (read+write) MSHR miss cycles
system.cpu1.dcache.overall_mshr_miss_latency::cpu1.data    749891200                       # number of overall MSHR miss cycles
system.cpu1.dcache.overall_mshr_miss_latency::total    749891200                       # number of overall MSHR miss cycles
system.cpu1.dcache.WriteReq_mshr_uncacheable_latency::cpu1.data       604000                       # number of WriteReq MSHR uncacheable cycles
system.cpu1.dcache.WriteReq_mshr_uncacheable_latency::total       604000                       # number of WriteReq MSHR uncacheable cycles
system.cpu1.dcache.overall_mshr_uncacheable_latency::cpu1.data       604000                       # number of overall MSHR uncacheable cycles
system.cpu1.dcache.overall_mshr_uncacheable_latency::total       604000                       # number of overall MSHR uncacheable cycles
system.cpu1.dcache.ReadReq_mshr_miss_rate::cpu1.data     0.050145                       # mshr miss rate for ReadReq accesses
system.cpu1.dcache.ReadReq_mshr_miss_rate::total     0.050145                       # mshr miss rate for ReadReq accesses
system.cpu1.dcache.WriteReq_mshr_miss_rate::cpu1.data     0.076681                       # mshr miss rate for WriteReq accesses
system.cpu1.dcache.WriteReq_mshr_miss_rate::total     0.076681                       # mshr miss rate for WriteReq accesses
system.cpu1.dcache.LoadLockedReq_mshr_miss_rate::cpu1.data     0.088905                       # mshr miss rate for LoadLockedReq accesses
system.cpu1.dcache.LoadLockedReq_mshr_miss_rate::total     0.088905                       # mshr miss rate for LoadLockedReq accesses
system.cpu1.dcache.StoreCondReq_mshr_miss_rate::cpu1.data     0.017255                       # mshr miss rate for StoreCondReq accesses
system.cpu1.dcache.StoreCondReq_mshr_miss_rate::total     0.017255                       # mshr miss rate for StoreCondReq accesses
system.cpu1.dcache.demand_mshr_miss_rate::cpu1.data     0.062915                       # mshr miss rate for demand accesses
system.cpu1.dcache.demand_mshr_miss_rate::total     0.062915                       # mshr miss rate for demand accesses
system.cpu1.dcache.overall_mshr_miss_rate::cpu1.data     0.062915                       # mshr miss rate for overall accesses
system.cpu1.dcache.overall_mshr_miss_rate::total     0.062915                       # mshr miss rate for overall accesses
system.cpu1.dcache.ReadReq_avg_mshr_miss_latency::cpu1.data 59957.920903                       # average ReadReq mshr miss latency
system.cpu1.dcache.ReadReq_avg_mshr_miss_latency::total 59957.920903                       # average ReadReq mshr miss latency
system.cpu1.dcache.WriteReq_avg_mshr_miss_latency::cpu1.data 69238.765353                       # average WriteReq mshr miss latency
system.cpu1.dcache.WriteReq_avg_mshr_miss_latency::total 69238.765353                       # average WriteReq mshr miss latency
system.cpu1.dcache.LoadLockedReq_avg_mshr_miss_latency::cpu1.data        52896                       # average LoadLockedReq mshr miss latency
system.cpu1.dcache.LoadLockedReq_avg_mshr_miss_latency::total        52896                       # average LoadLockedReq mshr miss latency
system.cpu1.dcache.StoreCondReq_avg_mshr_miss_latency::cpu1.data  2681.954545                       # average StoreCondReq mshr miss latency
system.cpu1.dcache.StoreCondReq_avg_mshr_miss_latency::total  2681.954545                       # average StoreCondReq mshr miss latency
system.cpu1.dcache.demand_avg_mshr_miss_latency::cpu1.data 65401.290773                       # average overall mshr miss latency
system.cpu1.dcache.demand_avg_mshr_miss_latency::total 65401.290773                       # average overall mshr miss latency
system.cpu1.dcache.overall_avg_mshr_miss_latency::cpu1.data 65401.290773                       # average overall mshr miss latency
system.cpu1.dcache.overall_avg_mshr_miss_latency::total 65401.290773                       # average overall mshr miss latency
system.cpu1.dcache.WriteReq_avg_mshr_uncacheable_latency::cpu1.data          inf                       # average WriteReq mshr uncacheable latency
system.cpu1.dcache.WriteReq_avg_mshr_uncacheable_latency::total          inf                       # average WriteReq mshr uncacheable latency
system.cpu1.dcache.overall_avg_mshr_uncacheable_latency::cpu1.data          inf                       # average overall mshr uncacheable latency
system.cpu1.dcache.overall_avg_mshr_uncacheable_latency::total          inf                       # average overall mshr uncacheable latency
system.cpu1.dcache.no_allocate_misses               0                       # Number of misses that were no-allocate
system.cpu0.kern.inst.arm                           0                       # number of arm instructions executed
system.cpu0.kern.inst.quiesce                       2                       # number of quiesce instructions executed
system.cpu0.kern.inst.hwrei                      1358                       # number of hwrei instructions executed
system.cpu0.kern.ipl_count::0                     258     46.74%     46.74% # number of times we switched to this ipl
system.cpu0.kern.ipl_count::22                      1      0.18%     46.92% # number of times we switched to this ipl
system.cpu0.kern.ipl_count::30                      1      0.18%     47.10% # number of times we switched to this ipl
system.cpu0.kern.ipl_count::31                    292     52.90%    100.00% # number of times we switched to this ipl
system.cpu0.kern.ipl_count::total                 552                       # number of times we switched to this ipl
system.cpu0.kern.ipl_good::0                      258     49.90%     49.90% # number of times we switched to this ipl from a different ipl
system.cpu0.kern.ipl_good::22                       1      0.19%     50.10% # number of times we switched to this ipl from a different ipl
system.cpu0.kern.ipl_good::30                       1      0.19%     50.29% # number of times we switched to this ipl from a different ipl
system.cpu0.kern.ipl_good::31                     257     49.71%    100.00% # number of times we switched to this ipl from a different ipl
system.cpu0.kern.ipl_good::total                  517                       # number of times we switched to this ipl from a different ipl
system.cpu0.kern.ipl_ticks::0               416190500     83.75%     83.75% # number of cycles we spent at this ipl
system.cpu0.kern.ipl_ticks::22                1021000      0.21%     83.96% # number of cycles we spent at this ipl
system.cpu0.kern.ipl_ticks::30                1866000      0.38%     84.33% # number of cycles we spent at this ipl
system.cpu0.kern.ipl_ticks::31               77855500     15.67%    100.00% # number of cycles we spent at this ipl
system.cpu0.kern.ipl_ticks::total           496933000                       # number of cycles we spent at this ipl
system.cpu0.kern.ipl_used::0                        1                       # fraction of swpipl calls that actually changed the ipl
system.cpu0.kern.ipl_used::22                       1                       # fraction of swpipl calls that actually changed the ipl
system.cpu0.kern.ipl_used::30                       1                       # fraction of swpipl calls that actually changed the ipl
system.cpu0.kern.ipl_used::31                0.880137                       # fraction of swpipl calls that actually changed the ipl
system.cpu0.kern.ipl_used::total             0.936594                       # fraction of swpipl calls that actually changed the ipl
system.cpu0.kern.syscall::2                         1     20.00%     20.00% # number of syscalls executed
system.cpu0.kern.syscall::3                         1     20.00%     40.00% # number of syscalls executed
system.cpu0.kern.syscall::6                         1     20.00%     60.00% # number of syscalls executed
system.cpu0.kern.syscall::48                        1     20.00%     80.00% # number of syscalls executed
system.cpu0.kern.syscall::59                        1     20.00%    100.00% # number of syscalls executed
system.cpu0.kern.syscall::total                     5                       # number of syscalls executed
system.cpu0.kern.callpal::wripir                    1      0.15%      0.15% # number of callpals executed
system.cpu0.kern.callpal::swpctx                   69     10.63%     10.79% # number of callpals executed
system.cpu0.kern.callpal::tbi                       5      0.77%     11.56% # number of callpals executed
system.cpu0.kern.callpal::swpipl                  463     71.34%     82.90% # number of callpals executed
system.cpu0.kern.callpal::rdps                      3      0.46%     83.36% # number of callpals executed
system.cpu0.kern.callpal::rdusp                     1      0.15%     83.51% # number of callpals executed
system.cpu0.kern.callpal::rti                      87     13.41%     96.92% # number of callpals executed
system.cpu0.kern.callpal::callsys                  19      2.93%     99.85% # number of callpals executed
system.cpu0.kern.callpal::imb                       1      0.15%    100.00% # number of callpals executed
system.cpu0.kern.callpal::total                   649                       # number of callpals executed
system.cpu0.kern.mode_switch::kernel              157                       # number of protection mode switches
system.cpu0.kern.mode_switch::user                 85                       # number of protection mode switches
system.cpu0.kern.mode_switch::idle                  0                       # number of protection mode switches
system.cpu0.kern.mode_good::kernel                 86                      
system.cpu0.kern.mode_good::user                   85                      
system.cpu0.kern.mode_good::idle                    0                      
system.cpu0.kern.mode_switch_good::kernel     0.547771                       # fraction of useful protection mode switches
system.cpu0.kern.mode_switch_good::user             1                       # fraction of useful protection mode switches
system.cpu0.kern.mode_switch_good::idle           nan                       # fraction of useful protection mode switches
system.cpu0.kern.mode_switch_good::total     0.706612                       # fraction of useful protection mode switches
system.cpu0.kern.mode_ticks::kernel         334234500     72.30%     72.30% # number of ticks spent at the given mode
system.cpu0.kern.mode_ticks::user           128073000     27.70%    100.00% # number of ticks spent at the given mode
system.cpu0.kern.mode_ticks::idle                   0      0.00%    100.00% # number of ticks spent at the given mode
system.cpu0.kern.swap_context                      69                       # number of times the context was actually changed
system.cpu1.kern.inst.arm                           0                       # number of arm instructions executed
system.cpu1.kern.inst.quiesce                       1                       # number of quiesce instructions executed
system.cpu1.kern.inst.hwrei                      1215                       # number of hwrei instructions executed
system.cpu1.kern.ipl_count::0                     248     49.30%     49.30% # number of times we switched to this ipl
system.cpu1.kern.ipl_count::22                      1      0.20%     49.50% # number of times we switched to this ipl
system.cpu1.kern.ipl_count::30                      1      0.20%     49.70% # number of times we switched to this ipl
system.cpu1.kern.ipl_count::31                    253     50.30%    100.00% # number of times we switched to this ipl
system.cpu1.kern.ipl_count::total                 503                       # number of times we switched to this ipl
system.cpu1.kern.ipl_good::0                      246     49.90%     49.90% # number of times we switched to this ipl from a different ipl
system.cpu1.kern.ipl_good::22                       1      0.20%     50.10% # number of times we switched to this ipl from a different ipl
system.cpu1.kern.ipl_good::30                       1      0.20%     50.30% # number of times we switched to this ipl from a different ipl
system.cpu1.kern.ipl_good::31                     245     49.70%    100.00% # number of times we switched to this ipl from a different ipl
system.cpu1.kern.ipl_good::total                  493                       # number of times we switched to this ipl from a different ipl
system.cpu1.kern.ipl_ticks::0              1568657000     97.26%     97.26% # number of cycles we spent at this ipl
system.cpu1.kern.ipl_ticks::22                 580500      0.04%     97.30% # number of cycles we spent at this ipl
system.cpu1.kern.ipl_ticks::30                 414000      0.03%     97.33% # number of cycles we spent at this ipl
system.cpu1.kern.ipl_ticks::31               43141000      2.67%    100.00% # number of cycles we spent at this ipl
system.cpu1.kern.ipl_ticks::total          1612792500                       # number of cycles we spent at this ipl
system.cpu1.kern.ipl_used::0                 0.991935                       # fraction of swpipl calls that actually changed the ipl
system.cpu1.kern.ipl_used::22                       1                       # fraction of swpipl calls that actually changed the ipl
system.cpu1.kern.ipl_used::30                       1                       # fraction of swpipl calls that actually changed the ipl
system.cpu1.kern.ipl_used::31                0.968379                       # fraction of swpipl calls that actually changed the ipl
system.cpu1.kern.ipl_used::total             0.980119                       # fraction of swpipl calls that actually changed the ipl
system.cpu1.kern.syscall::3                         1      8.33%      8.33% # number of syscalls executed
system.cpu1.kern.syscall::6                         1      8.33%     16.67% # number of syscalls executed
system.cpu1.kern.syscall::17                        1      8.33%     25.00% # number of syscalls executed
system.cpu1.kern.syscall::33                        1      8.33%     33.33% # number of syscalls executed
system.cpu1.kern.syscall::45                        3     25.00%     58.33% # number of syscalls executed
system.cpu1.kern.syscall::71                        4     33.33%     91.67% # number of syscalls executed
system.cpu1.kern.syscall::74                        1      8.33%    100.00% # number of syscalls executed
system.cpu1.kern.syscall::total                    12                       # number of syscalls executed
system.cpu1.kern.callpal::wripir                    1      0.17%      0.17% # number of callpals executed
system.cpu1.kern.callpal::swpctx                   53      9.15%      9.33% # number of callpals executed
system.cpu1.kern.callpal::tbi                       1      0.17%      9.50% # number of callpals executed
system.cpu1.kern.callpal::swpipl                  400     69.08%     78.58% # number of callpals executed
system.cpu1.kern.callpal::rdps                      4      0.69%     79.27% # number of callpals executed
system.cpu1.kern.callpal::wrusp                     1      0.17%     79.45% # number of callpals executed
system.cpu1.kern.callpal::rti                     101     17.44%     96.89% # number of callpals executed
system.cpu1.kern.callpal::callsys                  15      2.59%     99.48% # number of callpals executed
system.cpu1.kern.callpal::imb                       3      0.52%    100.00% # number of callpals executed
system.cpu1.kern.callpal::total                   579                       # number of callpals executed
system.cpu1.kern.mode_switch::kernel              151                       # number of protection mode switches
system.cpu1.kern.mode_switch::user                 97                       # number of protection mode switches
system.cpu1.kern.mode_switch::idle                  2                       # number of protection mode switches
system.cpu1.kern.mode_good::kernel                 97                      
system.cpu1.kern.mode_good::user                   97                      
system.cpu1.kern.mode_good::idle                    0                      
system.cpu1.kern.mode_switch_good::kernel     0.642384                       # fraction of useful protection mode switches
system.cpu1.kern.mode_switch_good::user             1                       # fraction of useful protection mode switches
system.cpu1.kern.mode_switch_good::idle             0                       # fraction of useful protection mode switches
system.cpu1.kern.mode_switch_good::total     0.776000                       # fraction of useful protection mode switches
system.cpu1.kern.mode_ticks::kernel         458727500     27.18%     27.18% # number of ticks spent at the given mode
system.cpu1.kern.mode_ticks::user           176145000     10.44%     37.61% # number of ticks spent at the given mode
system.cpu1.kern.mode_ticks::idle          1052987000     62.39%    100.00% # number of ticks spent at the given mode
system.cpu1.kern.swap_context                      53                       # number of times the context was actually changed

---------- End Simulation Statistics   ----------
