
---------- Begin Simulation Statistics ----------
sim_seconds                                  3.100447                       # Number of seconds simulated
sim_ticks                                3100446670000                       # Number of ticks simulated
final_tick                               3100446670000                       # Number of ticks from beginning of simulation (restored from checkpoints and never reset)
sim_freq                                 1000000000000                       # Frequency of simulated ticks
host_inst_rate                                 253072                       # Simulator instruction rate (inst/s)
host_op_rate                                   253072                       # Simulator op (including micro ops) rate (op/s)
host_tick_rate                             7791485495                       # Simulator tick rate (ticks/s)
host_mem_usage                                 461292                       # Number of bytes of host memory used
host_seconds                                   397.93                       # Real time elapsed on the host
sim_insts                                   100704469                       # Number of instructions simulated
sim_ops                                     100704469                       # Number of ops (including micro ops) simulated
system.voltage_domain.voltage                       1                       # Voltage in Volts
system.clk_domain.clock                          1000                       # Clock period in ticks
system.mem_ctrls.bytes_read::cpu0.inst       69643712                       # Number of bytes read from this memory
system.mem_ctrls.bytes_read::cpu0.data      166171392                       # Number of bytes read from this memory
system.mem_ctrls.bytes_read::tsunami.ide         4160                       # Number of bytes read from this memory
system.mem_ctrls.bytes_read::cpu1.inst       44087488                       # Number of bytes read from this memory
system.mem_ctrls.bytes_read::cpu1.data       13679104                       # Number of bytes read from this memory
system.mem_ctrls.bytes_read::total          293585856                       # Number of bytes read from this memory
system.mem_ctrls.bytes_inst_read::cpu0.inst     69643712                       # Number of instructions bytes read from this memory
system.mem_ctrls.bytes_inst_read::cpu1.inst     44087488                       # Number of instructions bytes read from this memory
system.mem_ctrls.bytes_inst_read::total     113731200                       # Number of instructions bytes read from this memory
system.mem_ctrls.bytes_written::writebacks     28846656                       # Number of bytes written to this memory
system.mem_ctrls.bytes_written::tsunami.ide      2832384                       # Number of bytes written to this memory
system.mem_ctrls.bytes_written::total        31679040                       # Number of bytes written to this memory
system.mem_ctrls.num_reads::cpu0.inst         1088183                       # Number of read requests responded to by this memory
system.mem_ctrls.num_reads::cpu0.data         2596428                       # Number of read requests responded to by this memory
system.mem_ctrls.num_reads::tsunami.ide            65                       # Number of read requests responded to by this memory
system.mem_ctrls.num_reads::cpu1.inst          688867                       # Number of read requests responded to by this memory
system.mem_ctrls.num_reads::cpu1.data          213736                       # Number of read requests responded to by this memory
system.mem_ctrls.num_reads::total             4587279                       # Number of read requests responded to by this memory
system.mem_ctrls.num_writes::writebacks        450729                       # Number of write requests responded to by this memory
system.mem_ctrls.num_writes::tsunami.ide        44256                       # Number of write requests responded to by this memory
system.mem_ctrls.num_writes::total             494985                       # Number of write requests responded to by this memory
system.mem_ctrls.bw_read::cpu0.inst          22462477                       # Total read bandwidth from this memory (bytes/s)
system.mem_ctrls.bw_read::cpu0.data          53595952                       # Total read bandwidth from this memory (bytes/s)
system.mem_ctrls.bw_read::tsunami.ide            1342                       # Total read bandwidth from this memory (bytes/s)
system.mem_ctrls.bw_read::cpu1.inst          14219721                       # Total read bandwidth from this memory (bytes/s)
system.mem_ctrls.bw_read::cpu1.data           4411978                       # Total read bandwidth from this memory (bytes/s)
system.mem_ctrls.bw_read::total              94691471                       # Total read bandwidth from this memory (bytes/s)
system.mem_ctrls.bw_inst_read::cpu0.inst     22462477                       # Instruction read bandwidth from this memory (bytes/s)
system.mem_ctrls.bw_inst_read::cpu1.inst     14219721                       # Instruction read bandwidth from this memory (bytes/s)
system.mem_ctrls.bw_inst_read::total         36682198                       # Instruction read bandwidth from this memory (bytes/s)
system.mem_ctrls.bw_write::writebacks         9304032                       # Write bandwidth from this memory (bytes/s)
system.mem_ctrls.bw_write::tsunami.ide         913541                       # Write bandwidth from this memory (bytes/s)
system.mem_ctrls.bw_write::total             10217573                       # Write bandwidth from this memory (bytes/s)
system.mem_ctrls.bw_total::writebacks         9304032                       # Total bandwidth to/from this memory (bytes/s)
system.mem_ctrls.bw_total::cpu0.inst         22462477                       # Total bandwidth to/from this memory (bytes/s)
system.mem_ctrls.bw_total::cpu0.data         53595952                       # Total bandwidth to/from this memory (bytes/s)
system.mem_ctrls.bw_total::tsunami.ide         914882                       # Total bandwidth to/from this memory (bytes/s)
system.mem_ctrls.bw_total::cpu1.inst         14219721                       # Total bandwidth to/from this memory (bytes/s)
system.mem_ctrls.bw_total::cpu1.data          4411978                       # Total bandwidth to/from this memory (bytes/s)
system.mem_ctrls.bw_total::total            104909044                       # Total bandwidth to/from this memory (bytes/s)
system.mem_ctrls.readReqs                     4587279                       # Number of read requests accepted
system.mem_ctrls.writeReqs                     494985                       # Number of write requests accepted
system.mem_ctrls.readBursts                   4587279                       # Number of DRAM read bursts, including those serviced by the write queue
system.mem_ctrls.writeBursts                   494985                       # Number of DRAM write bursts, including those merged in the write queue
system.mem_ctrls.bytesReadDRAM              291121472                       # Total number of bytes read from DRAM
system.mem_ctrls.bytesReadWrQ                 2464384                       # Total number of bytes read from write queue
system.mem_ctrls.bytesWritten                31422400                       # Total number of bytes written to DRAM
system.mem_ctrls.bytesReadSys               293585856                       # Total read bytes from the system interface side
system.mem_ctrls.bytesWrittenSys             31679040                       # Total written bytes from the system interface side
system.mem_ctrls.servicedByWrQ                  38506                       # Number of DRAM read bursts serviced by the write queue
system.mem_ctrls.mergedWrBursts                  3989                       # Number of DRAM write bursts merged with an existing one
system.mem_ctrls.neitherReadNorWriteReqs        20025                       # Number of requests that are neither read nor write
system.mem_ctrls.perBankRdBursts::0            321152                       # Per bank write bursts
system.mem_ctrls.perBankRdBursts::1            310551                       # Per bank write bursts
system.mem_ctrls.perBankRdBursts::2            256927                       # Per bank write bursts
system.mem_ctrls.perBankRdBursts::3            154735                       # Per bank write bursts
system.mem_ctrls.perBankRdBursts::4            225678                       # Per bank write bursts
system.mem_ctrls.perBankRdBursts::5            270292                       # Per bank write bursts
system.mem_ctrls.perBankRdBursts::6            204497                       # Per bank write bursts
system.mem_ctrls.perBankRdBursts::7            334584                       # Per bank write bursts
system.mem_ctrls.perBankRdBursts::8            415504                       # Per bank write bursts
system.mem_ctrls.perBankRdBursts::9            303687                       # Per bank write bursts
system.mem_ctrls.perBankRdBursts::10           302414                       # Per bank write bursts
system.mem_ctrls.perBankRdBursts::11           331316                       # Per bank write bursts
system.mem_ctrls.perBankRdBursts::12           295218                       # Per bank write bursts
system.mem_ctrls.perBankRdBursts::13           320267                       # Per bank write bursts
system.mem_ctrls.perBankRdBursts::14           230345                       # Per bank write bursts
system.mem_ctrls.perBankRdBursts::15           271606                       # Per bank write bursts
system.mem_ctrls.perBankWrBursts::0             26632                       # Per bank write bursts
system.mem_ctrls.perBankWrBursts::1             42567                       # Per bank write bursts
system.mem_ctrls.perBankWrBursts::2             48489                       # Per bank write bursts
system.mem_ctrls.perBankWrBursts::3             23272                       # Per bank write bursts
system.mem_ctrls.perBankWrBursts::4             31822                       # Per bank write bursts
system.mem_ctrls.perBankWrBursts::5             32908                       # Per bank write bursts
system.mem_ctrls.perBankWrBursts::6             24467                       # Per bank write bursts
system.mem_ctrls.perBankWrBursts::7             31749                       # Per bank write bursts
system.mem_ctrls.perBankWrBursts::8             25896                       # Per bank write bursts
system.mem_ctrls.perBankWrBursts::9             23693                       # Per bank write bursts
system.mem_ctrls.perBankWrBursts::10            23854                       # Per bank write bursts
system.mem_ctrls.perBankWrBursts::11            47323                       # Per bank write bursts
system.mem_ctrls.perBankWrBursts::12            26700                       # Per bank write bursts
system.mem_ctrls.perBankWrBursts::13            25928                       # Per bank write bursts
system.mem_ctrls.perBankWrBursts::14            24950                       # Per bank write bursts
system.mem_ctrls.perBankWrBursts::15            30725                       # Per bank write bursts
system.mem_ctrls.numRdRetry                         0                       # Number of times read queue was full causing retry
system.mem_ctrls.numWrRetry                        23                       # Number of times write queue was full causing retry
system.mem_ctrls.totGap                  3100446500000                       # Total gap between requests
system.mem_ctrls.readPktSize::0                     0                       # Read request sizes (log2)
system.mem_ctrls.readPktSize::1                     0                       # Read request sizes (log2)
system.mem_ctrls.readPktSize::2                     0                       # Read request sizes (log2)
system.mem_ctrls.readPktSize::3                     0                       # Read request sizes (log2)
system.mem_ctrls.readPktSize::4                     0                       # Read request sizes (log2)
system.mem_ctrls.readPktSize::5                     0                       # Read request sizes (log2)
system.mem_ctrls.readPktSize::6               4587279                       # Read request sizes (log2)
system.mem_ctrls.writePktSize::0                    0                       # Write request sizes (log2)
system.mem_ctrls.writePktSize::1                    0                       # Write request sizes (log2)
system.mem_ctrls.writePktSize::2                    0                       # Write request sizes (log2)
system.mem_ctrls.writePktSize::3                    0                       # Write request sizes (log2)
system.mem_ctrls.writePktSize::4                    0                       # Write request sizes (log2)
system.mem_ctrls.writePktSize::5                    0                       # Write request sizes (log2)
system.mem_ctrls.writePktSize::6               494985                       # Write request sizes (log2)
system.mem_ctrls.rdQLenPdf::0                 4056528                       # What read queue length does an incoming req see
system.mem_ctrls.rdQLenPdf::1                  450682                       # What read queue length does an incoming req see
system.mem_ctrls.rdQLenPdf::2                   33933                       # What read queue length does an incoming req see
system.mem_ctrls.rdQLenPdf::3                    6777                       # What read queue length does an incoming req see
system.mem_ctrls.rdQLenPdf::4                     727                       # What read queue length does an incoming req see
system.mem_ctrls.rdQLenPdf::5                      88                       # What read queue length does an incoming req see
system.mem_ctrls.rdQLenPdf::6                      18                       # What read queue length does an incoming req see
system.mem_ctrls.rdQLenPdf::7                       4                       # What read queue length does an incoming req see
system.mem_ctrls.rdQLenPdf::8                       4                       # What read queue length does an incoming req see
system.mem_ctrls.rdQLenPdf::9                       2                       # What read queue length does an incoming req see
system.mem_ctrls.rdQLenPdf::10                      1                       # What read queue length does an incoming req see
system.mem_ctrls.rdQLenPdf::11                      1                       # What read queue length does an incoming req see
system.mem_ctrls.rdQLenPdf::12                      1                       # What read queue length does an incoming req see
system.mem_ctrls.rdQLenPdf::13                      1                       # What read queue length does an incoming req see
system.mem_ctrls.rdQLenPdf::14                      1                       # What read queue length does an incoming req see
system.mem_ctrls.rdQLenPdf::15                      1                       # What read queue length does an incoming req see
system.mem_ctrls.rdQLenPdf::16                      1                       # What read queue length does an incoming req see
system.mem_ctrls.rdQLenPdf::17                      1                       # What read queue length does an incoming req see
system.mem_ctrls.rdQLenPdf::18                      1                       # What read queue length does an incoming req see
system.mem_ctrls.rdQLenPdf::19                      1                       # What read queue length does an incoming req see
system.mem_ctrls.rdQLenPdf::20                      0                       # What read queue length does an incoming req see
system.mem_ctrls.rdQLenPdf::21                      0                       # What read queue length does an incoming req see
system.mem_ctrls.rdQLenPdf::22                      0                       # What read queue length does an incoming req see
system.mem_ctrls.rdQLenPdf::23                      0                       # What read queue length does an incoming req see
system.mem_ctrls.rdQLenPdf::24                      0                       # What read queue length does an incoming req see
system.mem_ctrls.rdQLenPdf::25                      0                       # What read queue length does an incoming req see
system.mem_ctrls.rdQLenPdf::26                      0                       # What read queue length does an incoming req see
system.mem_ctrls.rdQLenPdf::27                      0                       # What read queue length does an incoming req see
system.mem_ctrls.rdQLenPdf::28                      0                       # What read queue length does an incoming req see
system.mem_ctrls.rdQLenPdf::29                      0                       # What read queue length does an incoming req see
system.mem_ctrls.rdQLenPdf::30                      0                       # What read queue length does an incoming req see
system.mem_ctrls.rdQLenPdf::31                      0                       # What read queue length does an incoming req see
system.mem_ctrls.wrQLenPdf::0                       1                       # What write queue length does an incoming req see
system.mem_ctrls.wrQLenPdf::1                       1                       # What write queue length does an incoming req see
system.mem_ctrls.wrQLenPdf::2                       1                       # What write queue length does an incoming req see
system.mem_ctrls.wrQLenPdf::3                       1                       # What write queue length does an incoming req see
system.mem_ctrls.wrQLenPdf::4                       1                       # What write queue length does an incoming req see
system.mem_ctrls.wrQLenPdf::5                       1                       # What write queue length does an incoming req see
system.mem_ctrls.wrQLenPdf::6                       1                       # What write queue length does an incoming req see
system.mem_ctrls.wrQLenPdf::7                       1                       # What write queue length does an incoming req see
system.mem_ctrls.wrQLenPdf::8                       1                       # What write queue length does an incoming req see
system.mem_ctrls.wrQLenPdf::9                       1                       # What write queue length does an incoming req see
system.mem_ctrls.wrQLenPdf::10                      1                       # What write queue length does an incoming req see
system.mem_ctrls.wrQLenPdf::11                      1                       # What write queue length does an incoming req see
system.mem_ctrls.wrQLenPdf::12                      1                       # What write queue length does an incoming req see
system.mem_ctrls.wrQLenPdf::13                      1                       # What write queue length does an incoming req see
system.mem_ctrls.wrQLenPdf::14                      1                       # What write queue length does an incoming req see
system.mem_ctrls.wrQLenPdf::15                  11367                       # What write queue length does an incoming req see
system.mem_ctrls.wrQLenPdf::16                  12463                       # What write queue length does an incoming req see
system.mem_ctrls.wrQLenPdf::17                  24563                       # What write queue length does an incoming req see
system.mem_ctrls.wrQLenPdf::18                  27567                       # What write queue length does an incoming req see
system.mem_ctrls.wrQLenPdf::19                  27405                       # What write queue length does an incoming req see
system.mem_ctrls.wrQLenPdf::20                  27785                       # What write queue length does an incoming req see
system.mem_ctrls.wrQLenPdf::21                  27944                       # What write queue length does an incoming req see
system.mem_ctrls.wrQLenPdf::22                  28641                       # What write queue length does an incoming req see
system.mem_ctrls.wrQLenPdf::23                  29033                       # What write queue length does an incoming req see
system.mem_ctrls.wrQLenPdf::24                  29905                       # What write queue length does an incoming req see
system.mem_ctrls.wrQLenPdf::25                  29817                       # What write queue length does an incoming req see
system.mem_ctrls.wrQLenPdf::26                  29546                       # What write queue length does an incoming req see
system.mem_ctrls.wrQLenPdf::27                  29508                       # What write queue length does an incoming req see
system.mem_ctrls.wrQLenPdf::28                  30324                       # What write queue length does an incoming req see
system.mem_ctrls.wrQLenPdf::29                  29371                       # What write queue length does an incoming req see
system.mem_ctrls.wrQLenPdf::30                  29207                       # What write queue length does an incoming req see
system.mem_ctrls.wrQLenPdf::31                  28996                       # What write queue length does an incoming req see
system.mem_ctrls.wrQLenPdf::32                  28924                       # What write queue length does an incoming req see
system.mem_ctrls.wrQLenPdf::33                    934                       # What write queue length does an incoming req see
system.mem_ctrls.wrQLenPdf::34                    729                       # What write queue length does an incoming req see
system.mem_ctrls.wrQLenPdf::35                    646                       # What write queue length does an incoming req see
system.mem_ctrls.wrQLenPdf::36                    555                       # What write queue length does an incoming req see
system.mem_ctrls.wrQLenPdf::37                    451                       # What write queue length does an incoming req see
system.mem_ctrls.wrQLenPdf::38                    422                       # What write queue length does an incoming req see
system.mem_ctrls.wrQLenPdf::39                    377                       # What write queue length does an incoming req see
system.mem_ctrls.wrQLenPdf::40                    322                       # What write queue length does an incoming req see
system.mem_ctrls.wrQLenPdf::41                    247                       # What write queue length does an incoming req see
system.mem_ctrls.wrQLenPdf::42                    237                       # What write queue length does an incoming req see
system.mem_ctrls.wrQLenPdf::43                    215                       # What write queue length does an incoming req see
system.mem_ctrls.wrQLenPdf::44                    218                       # What write queue length does an incoming req see
system.mem_ctrls.wrQLenPdf::45                    209                       # What write queue length does an incoming req see
system.mem_ctrls.wrQLenPdf::46                    207                       # What write queue length does an incoming req see
system.mem_ctrls.wrQLenPdf::47                    214                       # What write queue length does an incoming req see
system.mem_ctrls.wrQLenPdf::48                    230                       # What write queue length does an incoming req see
system.mem_ctrls.wrQLenPdf::49                    213                       # What write queue length does an incoming req see
system.mem_ctrls.wrQLenPdf::50                    208                       # What write queue length does an incoming req see
system.mem_ctrls.wrQLenPdf::51                    209                       # What write queue length does an incoming req see
system.mem_ctrls.wrQLenPdf::52                    194                       # What write queue length does an incoming req see
system.mem_ctrls.wrQLenPdf::53                    193                       # What write queue length does an incoming req see
system.mem_ctrls.wrQLenPdf::54                    178                       # What write queue length does an incoming req see
system.mem_ctrls.wrQLenPdf::55                    172                       # What write queue length does an incoming req see
system.mem_ctrls.wrQLenPdf::56                    178                       # What write queue length does an incoming req see
system.mem_ctrls.wrQLenPdf::57                    176                       # What write queue length does an incoming req see
system.mem_ctrls.wrQLenPdf::58                    164                       # What write queue length does an incoming req see
system.mem_ctrls.wrQLenPdf::59                    144                       # What write queue length does an incoming req see
system.mem_ctrls.wrQLenPdf::60                    140                       # What write queue length does an incoming req see
system.mem_ctrls.wrQLenPdf::61                     97                       # What write queue length does an incoming req see
system.mem_ctrls.wrQLenPdf::62                     66                       # What write queue length does an incoming req see
system.mem_ctrls.wrQLenPdf::63                     70                       # What write queue length does an incoming req see
system.mem_ctrls.bytesPerActivate::samples      1225610                       # Bytes accessed per row activation
system.mem_ctrls.bytesPerActivate::mean    263.169863                       # Bytes accessed per row activation
system.mem_ctrls.bytesPerActivate::gmean   158.485062                       # Bytes accessed per row activation
system.mem_ctrls.bytesPerActivate::stdev   297.192814                       # Bytes accessed per row activation
system.mem_ctrls.bytesPerActivate::0-127       502873     41.03%     41.03% # Bytes accessed per row activation
system.mem_ctrls.bytesPerActivate::128-255       329065     26.85%     67.88% # Bytes accessed per row activation
system.mem_ctrls.bytesPerActivate::256-383       115069      9.39%     77.27% # Bytes accessed per row activation
system.mem_ctrls.bytesPerActivate::384-511        61979      5.06%     82.33% # Bytes accessed per row activation
system.mem_ctrls.bytesPerActivate::512-639        43045      3.51%     85.84% # Bytes accessed per row activation
system.mem_ctrls.bytesPerActivate::640-767        35287      2.88%     88.72% # Bytes accessed per row activation
system.mem_ctrls.bytesPerActivate::768-895        17203      1.40%     90.12% # Bytes accessed per row activation
system.mem_ctrls.bytesPerActivate::896-1023        12425      1.01%     91.13% # Bytes accessed per row activation
system.mem_ctrls.bytesPerActivate::1024-1151       108664      8.87%    100.00% # Bytes accessed per row activation
system.mem_ctrls.bytesPerActivate::total      1225610                       # Bytes accessed per row activation
system.mem_ctrls.rdPerTurnAround::samples        28191                       # Reads before turning the bus around for writes
system.mem_ctrls.rdPerTurnAround::mean     161.354049                       # Reads before turning the bus around for writes
system.mem_ctrls.rdPerTurnAround::stdev   6149.830601                       # Reads before turning the bus around for writes
system.mem_ctrls.rdPerTurnAround::0-32767        28190    100.00%    100.00% # Reads before turning the bus around for writes
system.mem_ctrls.rdPerTurnAround::1.01581e+06-1.04858e+06            1      0.00%    100.00% # Reads before turning the bus around for writes
system.mem_ctrls.rdPerTurnAround::total         28191                       # Reads before turning the bus around for writes
system.mem_ctrls.wrPerTurnAround::samples        28191                       # Writes before turning the bus around for reads
system.mem_ctrls.wrPerTurnAround::mean      17.416019                       # Writes before turning the bus around for reads
system.mem_ctrls.wrPerTurnAround::gmean     17.189466                       # Writes before turning the bus around for reads
system.mem_ctrls.wrPerTurnAround::stdev      4.348180                       # Writes before turning the bus around for reads
system.mem_ctrls.wrPerTurnAround::16-19         27190     96.45%     96.45% # Writes before turning the bus around for reads
system.mem_ctrls.wrPerTurnAround::20-23           422      1.50%     97.95% # Writes before turning the bus around for reads
system.mem_ctrls.wrPerTurnAround::24-27           141      0.50%     98.45% # Writes before turning the bus around for reads
system.mem_ctrls.wrPerTurnAround::28-31           171      0.61%     99.05% # Writes before turning the bus around for reads
system.mem_ctrls.wrPerTurnAround::32-35            90      0.32%     99.37% # Writes before turning the bus around for reads
system.mem_ctrls.wrPerTurnAround::36-39            30      0.11%     99.48% # Writes before turning the bus around for reads
system.mem_ctrls.wrPerTurnAround::40-43            22      0.08%     99.56% # Writes before turning the bus around for reads
system.mem_ctrls.wrPerTurnAround::44-47            21      0.07%     99.63% # Writes before turning the bus around for reads
system.mem_ctrls.wrPerTurnAround::48-51            13      0.05%     99.68% # Writes before turning the bus around for reads
system.mem_ctrls.wrPerTurnAround::52-55             6      0.02%     99.70% # Writes before turning the bus around for reads
system.mem_ctrls.wrPerTurnAround::56-59             7      0.02%     99.72% # Writes before turning the bus around for reads
system.mem_ctrls.wrPerTurnAround::60-63            12      0.04%     99.77% # Writes before turning the bus around for reads
system.mem_ctrls.wrPerTurnAround::64-67             5      0.02%     99.78% # Writes before turning the bus around for reads
system.mem_ctrls.wrPerTurnAround::68-71             6      0.02%     99.80% # Writes before turning the bus around for reads
system.mem_ctrls.wrPerTurnAround::72-75             8      0.03%     99.83% # Writes before turning the bus around for reads
system.mem_ctrls.wrPerTurnAround::76-79             8      0.03%     99.86% # Writes before turning the bus around for reads
system.mem_ctrls.wrPerTurnAround::80-83             4      0.01%     99.88% # Writes before turning the bus around for reads
system.mem_ctrls.wrPerTurnAround::84-87             5      0.02%     99.89% # Writes before turning the bus around for reads
system.mem_ctrls.wrPerTurnAround::88-91             3      0.01%     99.90% # Writes before turning the bus around for reads
system.mem_ctrls.wrPerTurnAround::92-95             4      0.01%     99.92% # Writes before turning the bus around for reads
system.mem_ctrls.wrPerTurnAround::96-99             9      0.03%     99.95% # Writes before turning the bus around for reads
system.mem_ctrls.wrPerTurnAround::100-103            6      0.02%     99.97% # Writes before turning the bus around for reads
system.mem_ctrls.wrPerTurnAround::104-107            3      0.01%     99.98% # Writes before turning the bus around for reads
system.mem_ctrls.wrPerTurnAround::108-111            2      0.01%     99.99% # Writes before turning the bus around for reads
system.mem_ctrls.wrPerTurnAround::116-119            1      0.00%     99.99% # Writes before turning the bus around for reads
system.mem_ctrls.wrPerTurnAround::120-123            1      0.00%    100.00% # Writes before turning the bus around for reads
system.mem_ctrls.wrPerTurnAround::144-147            1      0.00%    100.00% # Writes before turning the bus around for reads
system.mem_ctrls.wrPerTurnAround::total         28191                       # Writes before turning the bus around for reads
system.mem_ctrls.totQLat                  40774331277                       # Total ticks spent queuing
system.mem_ctrls.totMemAccLat            126063825027                       # Total ticks spent from burst creation until serviced by the DRAM
system.mem_ctrls.totBusLat                22743865000                       # Total ticks spent in databus transfers
system.mem_ctrls.avgQLat                      8963.81                       # Average queueing delay per DRAM burst
system.mem_ctrls.avgBusLat                    5000.00                       # Average bus latency per DRAM burst
system.mem_ctrls.avgMemAccLat                27713.81                       # Average memory access latency per DRAM burst
system.mem_ctrls.avgRdBW                        93.90                       # Average DRAM read bandwidth in MiByte/s
system.mem_ctrls.avgWrBW                        10.13                       # Average achieved write bandwidth in MiByte/s
system.mem_ctrls.avgRdBWSys                     94.69                       # Average system read bandwidth in MiByte/s
system.mem_ctrls.avgWrBWSys                     10.22                       # Average system write bandwidth in MiByte/s
system.mem_ctrls.peakBW                      12800.00                       # Theoretical peak bandwidth in MiByte/s
system.mem_ctrls.busUtil                         0.81                       # Data bus utilization in percentage
system.mem_ctrls.busUtilRead                     0.73                       # Data bus utilization in percentage for reads
system.mem_ctrls.busUtilWrite                    0.08                       # Data bus utilization in percentage for writes
system.mem_ctrls.avgRdQLen                       1.03                       # Average read queue length when enqueuing
system.mem_ctrls.avgWrQLen                      23.98                       # Average write queue length when enqueuing
system.mem_ctrls.readRowHits                  3481380                       # Number of row buffer hits during reads
system.mem_ctrls.writeRowHits                  332757                       # Number of row buffer hits during writes
system.mem_ctrls.readRowHitRate                 76.53                       # Row buffer hit rate for reads
system.mem_ctrls.writeRowHitRate                67.77                       # Row buffer hit rate for writes
system.mem_ctrls.avgGap                     610052.23                       # Average gap between requests
system.mem_ctrls.pageHitRate                    75.68                       # Row buffer hit rate, read and write combined
system.mem_ctrls.memoryStateTime::IDLE   2223476528251                       # Time in different power states
system.mem_ctrls.memoryStateTime::REF    103530700000                       # Time in different power states
system.mem_ctrls.memoryStateTime::PRE_PDN            0                       # Time in different power states
system.mem_ctrls.memoryStateTime::ACT    773438961749                       # Time in different power states
system.mem_ctrls.memoryStateTime::ACT_PDN            0                       # Time in different power states
system.mem_ctrls.actEnergy::0              3975758640                       # Energy for activate commands per rank (pJ)
system.mem_ctrls.actEnergy::1              5289852960                       # Energy for activate commands per rank (pJ)
system.mem_ctrls.preEnergy::0              2169312750                       # Energy for precharge commands per rank (pJ)
system.mem_ctrls.preEnergy::1              2886328500                       # Energy for precharge commands per rank (pJ)
system.mem_ctrls.readEnergy::0            16211644800                       # Energy for read commands per rank (pJ)
system.mem_ctrls.readEnergy::1            19268753400                       # Energy for read commands per rank (pJ)
system.mem_ctrls.writeEnergy::0            1697150880                       # Energy for write commands per rank (pJ)
system.mem_ctrls.writeEnergy::1            1484367120                       # Energy for write commands per rank (pJ)
system.mem_ctrls.refreshEnergy::0        202506049200                       # Energy for refresh commands per rank (pJ)
system.mem_ctrls.refreshEnergy::1        202506049200                       # Energy for refresh commands per rank (pJ)
system.mem_ctrls.actBackEnergy::0        489503107170                       # Energy for active background per rank (pJ)
system.mem_ctrls.actBackEnergy::1        502911670320                       # Energy for active background per rank (pJ)
system.mem_ctrls.preBackEnergy::0        1430878956750                       # Energy for precharge background per rank (pJ)
system.mem_ctrls.preBackEnergy::1        1419117059250                       # Energy for precharge background per rank (pJ)
system.mem_ctrls.totalEnergy::0          2146941980190                       # Total energy per rank (pJ)
system.mem_ctrls.totalEnergy::1          2153464080750                       # Total energy per rank (pJ)
system.mem_ctrls.averagePower::0           692.462286                       # Core power per rank (mW)
system.mem_ctrls.averagePower::1           694.565887                       # Core power per rank (mW)
system.membus.trans_dist::ReadReq             4384703                       # Transaction distribution
system.membus.trans_dist::ReadResp            4384309                       # Transaction distribution
system.membus.trans_dist::WriteReq              17817                       # Transaction distribution
system.membus.trans_dist::WriteResp             17817                       # Transaction distribution
system.membus.trans_dist::Writeback            450729                       # Transaction distribution
system.membus.trans_dist::WriteInvalidateReq        44256                       # Transaction distribution
system.membus.trans_dist::WriteInvalidateResp        44256                       # Transaction distribution
system.membus.trans_dist::UpgradeReq            53175                       # Transaction distribution
system.membus.trans_dist::SCUpgradeReq          28335                       # Transaction distribution
system.membus.trans_dist::UpgradeResp           81510                       # Transaction distribution
system.membus.trans_dist::SCUpgradeFailReq            4                       # Transaction distribution
system.membus.trans_dist::UpgradeFailResp            4                       # Transaction distribution
system.membus.trans_dist::ReadExReq            310403                       # Transaction distribution
system.membus.trans_dist::ReadExResp           310403                       # Transaction distribution
system.membus.trans_dist::BadAddressError          394                       # Transaction distribution
system.membus.pkt_count_system.iocache.mem_side::system.mem_ctrls.port        88786                       # Packet count per connected master and slave (bytes)
system.membus.pkt_count_system.iocache.mem_side::total        88786                       # Packet count per connected master and slave (bytes)
system.membus.pkt_count_system.cpu0.icache.mem_side::system.mem_ctrls.port      2176683                       # Packet count per connected master and slave (bytes)
system.membus.pkt_count_system.cpu0.icache.mem_side::total      2176683                       # Packet count per connected master and slave (bytes)
system.membus.pkt_count_system.cpu0.dcache.mem_side::system.bridge.slave        39846                       # Packet count per connected master and slave (bytes)
system.membus.pkt_count_system.cpu0.dcache.mem_side::system.mem_ctrls.port      5661884                       # Packet count per connected master and slave (bytes)
system.membus.pkt_count_system.cpu0.dcache.mem_side::system.membus.badaddr_responder.pio          708                       # Packet count per connected master and slave (bytes)
system.membus.pkt_count_system.cpu0.dcache.mem_side::total      5702438                       # Packet count per connected master and slave (bytes)
system.membus.pkt_count_system.cpu1.icache.mem_side::system.mem_ctrls.port      1377783                       # Packet count per connected master and slave (bytes)
system.membus.pkt_count_system.cpu1.icache.mem_side::total      1377783                       # Packet count per connected master and slave (bytes)
system.membus.pkt_count_system.cpu1.dcache.mem_side::system.bridge.slave        10338                       # Packet count per connected master and slave (bytes)
system.membus.pkt_count_system.cpu1.dcache.mem_side::system.mem_ctrls.port       610360                       # Packet count per connected master and slave (bytes)
system.membus.pkt_count_system.cpu1.dcache.mem_side::system.membus.badaddr_responder.pio           80                       # Packet count per connected master and slave (bytes)
system.membus.pkt_count_system.cpu1.dcache.mem_side::total       620778                       # Packet count per connected master and slave (bytes)
system.membus.pkt_count::total                9966468                       # Packet count per connected master and slave (bytes)
system.membus.pkt_size_system.iocache.mem_side::system.mem_ctrls.port      2836544                       # Cumulative packet size per connected master and slave (bytes)
system.membus.pkt_size_system.iocache.mem_side::total      2836544                       # Cumulative packet size per connected master and slave (bytes)
system.membus.pkt_size_system.cpu0.icache.mem_side::system.mem_ctrls.port     69643712                       # Cumulative packet size per connected master and slave (bytes)
system.membus.pkt_size_system.cpu0.icache.mem_side::total     69643712                       # Cumulative packet size per connected master and slave (bytes)
system.membus.pkt_size_system.cpu0.dcache.mem_side::system.bridge.slave        66004                       # Cumulative packet size per connected master and slave (bytes)
system.membus.pkt_size_system.cpu0.dcache.mem_side::system.mem_ctrls.port    188545472                       # Cumulative packet size per connected master and slave (bytes)
system.membus.pkt_size_system.cpu0.dcache.mem_side::total    188611476                       # Cumulative packet size per connected master and slave (bytes)
system.membus.pkt_size_system.cpu1.icache.mem_side::system.mem_ctrls.port     44087488                       # Cumulative packet size per connected master and slave (bytes)
system.membus.pkt_size_system.cpu1.icache.mem_side::total     44087488                       # Cumulative packet size per connected master and slave (bytes)
system.membus.pkt_size_system.cpu1.dcache.mem_side::system.bridge.slave        40527                       # Cumulative packet size per connected master and slave (bytes)
system.membus.pkt_size_system.cpu1.dcache.mem_side::system.mem_ctrls.port     20151680                       # Cumulative packet size per connected master and slave (bytes)
system.membus.pkt_size_system.cpu1.dcache.mem_side::total     20192207                       # Cumulative packet size per connected master and slave (bytes)
system.membus.pkt_size::total               325371427                       # Cumulative packet size per connected master and slave (bytes)
system.membus.snoops                           161647                       # Total snoops (count)
system.membus.snoop_fanout::samples           5264353                       # Request fanout histogram
system.membus.snoop_fanout::mean                    4                       # Request fanout histogram
system.membus.snoop_fanout::stdev                   0                       # Request fanout histogram
system.membus.snoop_fanout::underflows              0      0.00%      0.00% # Request fanout histogram
system.membus.snoop_fanout::0                       0      0.00%      0.00% # Request fanout histogram
system.membus.snoop_fanout::1                       0      0.00%      0.00% # Request fanout histogram
system.membus.snoop_fanout::2                       0      0.00%      0.00% # Request fanout histogram
system.membus.snoop_fanout::3                       0      0.00%      0.00% # Request fanout histogram
system.membus.snoop_fanout::4                 5264353    100.00%    100.00% # Request fanout histogram
system.membus.snoop_fanout::5                       0      0.00%    100.00% # Request fanout histogram
system.membus.snoop_fanout::overflows               0      0.00%    100.00% # Request fanout histogram
system.membus.snoop_fanout::min_value               4                       # Request fanout histogram
system.membus.snoop_fanout::max_value               4                       # Request fanout histogram
system.membus.snoop_fanout::total             5264353                       # Request fanout histogram
system.membus.reqLayer0.occupancy            42939969                       # Layer occupancy (ticks)
system.membus.reqLayer0.utilization               0.0                       # Layer utilization (%)
system.membus.reqLayer1.occupancy          9224984111                       # Layer occupancy (ticks)
system.membus.reqLayer1.utilization               0.3                       # Layer utilization (%)
system.membus.reqLayer2.occupancy              394000                       # Layer occupancy (ticks)
system.membus.reqLayer2.utilization               0.0                       # Layer utilization (%)
system.membus.respLayer1.occupancy           46213931                       # Layer occupancy (ticks)
system.membus.respLayer1.utilization              0.0                       # Layer utilization (%)
system.membus.respLayer2.occupancy        10170647268                       # Layer occupancy (ticks)
system.membus.respLayer2.utilization              0.3                       # Layer utilization (%)
system.membus.respLayer3.occupancy        24716375174                       # Layer occupancy (ticks)
system.membus.respLayer3.utilization              0.8                       # Layer utilization (%)
system.membus.respLayer4.occupancy         6441559792                       # Layer occupancy (ticks)
system.membus.respLayer4.utilization              0.2                       # Layer utilization (%)
system.membus.respLayer5.occupancy         2415447942                       # Layer occupancy (ticks)
system.membus.respLayer5.utilization              0.1                       # Layer utilization (%)
system.iocache.tags.replacements                44417                       # number of replacements
system.iocache.tags.tagsinuse                0.722805                       # Cycle average of tags in use
system.iocache.tags.total_refs                      0                       # Total number of references to valid blocks.
system.iocache.tags.sampled_refs                44417                       # Sample count of references to valid blocks.
system.iocache.tags.avg_refs                        0                       # Average number of references to valid blocks.
system.iocache.tags.warmup_cycle         2951202378000                       # Cycle when the warmup percentage was hit.
system.iocache.tags.occ_blocks::tsunami.ide     0.722805                       # Average occupied blocks per requestor
system.iocache.tags.occ_percent::tsunami.ide     0.045175                       # Average percentage of cache occupancy
system.iocache.tags.occ_percent::total       0.045175                       # Average percentage of cache occupancy
system.iocache.tags.occ_task_id_blocks::1023           16                       # Occupied blocks per task id
system.iocache.tags.age_task_id_blocks_1023::4           16                       # Occupied blocks per task id
system.iocache.tags.occ_task_id_percent::1023            1                       # Percentage of cache occupancy per task id
system.iocache.tags.tag_accesses               400201                       # Number of tag accesses
system.iocache.tags.data_accesses              400201                       # Number of data accesses
system.iocache.WriteInvalidateReq_hits::tsunami.ide        44256                       # number of WriteInvalidateReq hits
system.iocache.WriteInvalidateReq_hits::total        44256                       # number of WriteInvalidateReq hits
system.iocache.ReadReq_misses::tsunami.ide          209                       # number of ReadReq misses
system.iocache.ReadReq_misses::total              209                       # number of ReadReq misses
system.iocache.WriteInvalidateReq_misses::tsunami.ide            2                       # number of WriteInvalidateReq misses
system.iocache.WriteInvalidateReq_misses::total            2                       # number of WriteInvalidateReq misses
system.iocache.demand_misses::tsunami.ide          209                       # number of demand (read+write) misses
system.iocache.demand_misses::total               209                       # number of demand (read+write) misses
system.iocache.overall_misses::tsunami.ide          209                       # number of overall misses
system.iocache.overall_misses::total              209                       # number of overall misses
system.iocache.ReadReq_miss_latency::tsunami.ide     33605104                       # number of ReadReq miss cycles
system.iocache.ReadReq_miss_latency::total     33605104                       # number of ReadReq miss cycles
system.iocache.demand_miss_latency::tsunami.ide     33605104                       # number of demand (read+write) miss cycles
system.iocache.demand_miss_latency::total     33605104                       # number of demand (read+write) miss cycles
system.iocache.overall_miss_latency::tsunami.ide     33605104                       # number of overall miss cycles
system.iocache.overall_miss_latency::total     33605104                       # number of overall miss cycles
system.iocache.ReadReq_accesses::tsunami.ide          209                       # number of ReadReq accesses(hits+misses)
system.iocache.ReadReq_accesses::total            209                       # number of ReadReq accesses(hits+misses)
system.iocache.WriteInvalidateReq_accesses::tsunami.ide        44258                       # number of WriteInvalidateReq accesses(hits+misses)
system.iocache.WriteInvalidateReq_accesses::total        44258                       # number of WriteInvalidateReq accesses(hits+misses)
system.iocache.demand_accesses::tsunami.ide          209                       # number of demand (read+write) accesses
system.iocache.demand_accesses::total             209                       # number of demand (read+write) accesses
system.iocache.overall_accesses::tsunami.ide          209                       # number of overall (read+write) accesses
system.iocache.overall_accesses::total            209                       # number of overall (read+write) accesses
system.iocache.ReadReq_miss_rate::tsunami.ide            1                       # miss rate for ReadReq accesses
system.iocache.ReadReq_miss_rate::total             1                       # miss rate for ReadReq accesses
system.iocache.WriteInvalidateReq_miss_rate::tsunami.ide     0.000045                       # miss rate for WriteInvalidateReq accesses
system.iocache.WriteInvalidateReq_miss_rate::total     0.000045                       # miss rate for WriteInvalidateReq accesses
system.iocache.demand_miss_rate::tsunami.ide            1                       # miss rate for demand accesses
system.iocache.demand_miss_rate::total              1                       # miss rate for demand accesses
system.iocache.overall_miss_rate::tsunami.ide            1                       # miss rate for overall accesses
system.iocache.overall_miss_rate::total             1                       # miss rate for overall accesses
system.iocache.ReadReq_avg_miss_latency::tsunami.ide 160789.971292                       # average ReadReq miss latency
system.iocache.ReadReq_avg_miss_latency::total 160789.971292                       # average ReadReq miss latency
system.iocache.demand_avg_miss_latency::tsunami.ide 160789.971292                       # average overall miss latency
system.iocache.demand_avg_miss_latency::total 160789.971292                       # average overall miss latency
system.iocache.overall_avg_miss_latency::tsunami.ide 160789.971292                       # average overall miss latency
system.iocache.overall_avg_miss_latency::total 160789.971292                       # average overall miss latency
system.iocache.blocked_cycles::no_mshrs           428                       # number of cycles access was blocked
system.iocache.blocked_cycles::no_targets            0                       # number of cycles access was blocked
system.iocache.blocked::no_mshrs                   45                       # number of cycles access was blocked
system.iocache.blocked::no_targets                  0                       # number of cycles access was blocked
system.iocache.avg_blocked_cycles::no_mshrs     9.511111                       # average number of cycles each access was blocked
system.iocache.avg_blocked_cycles::no_targets          nan                       # average number of cycles each access was blocked
system.iocache.fast_writes                      44256                       # number of fast writes performed
system.iocache.cache_copies                         0                       # number of cache copies performed
system.iocache.ReadReq_mshr_misses::tsunami.ide          209                       # number of ReadReq MSHR misses
system.iocache.ReadReq_mshr_misses::total          209                       # number of ReadReq MSHR misses
system.iocache.WriteInvalidateReq_mshr_misses::tsunami.ide        44256                       # number of WriteInvalidateReq MSHR misses
system.iocache.WriteInvalidateReq_mshr_misses::total        44256                       # number of WriteInvalidateReq MSHR misses
system.iocache.demand_mshr_misses::tsunami.ide          209                       # number of demand (read+write) MSHR misses
system.iocache.demand_mshr_misses::total          209                       # number of demand (read+write) MSHR misses
system.iocache.overall_mshr_misses::tsunami.ide          209                       # number of overall MSHR misses
system.iocache.overall_mshr_misses::total          209                       # number of overall MSHR misses
system.iocache.ReadReq_mshr_miss_latency::tsunami.ide     22733604                       # number of ReadReq MSHR miss cycles
system.iocache.ReadReq_mshr_miss_latency::total     22733604                       # number of ReadReq MSHR miss cycles
system.iocache.WriteInvalidateReq_mshr_miss_latency::tsunami.ide   2842726786                       # number of WriteInvalidateReq MSHR miss cycles
system.iocache.WriteInvalidateReq_mshr_miss_latency::total   2842726786                       # number of WriteInvalidateReq MSHR miss cycles
system.iocache.demand_mshr_miss_latency::tsunami.ide     22733604                       # number of demand (read+write) MSHR miss cycles
system.iocache.demand_mshr_miss_latency::total     22733604                       # number of demand (read+write) MSHR miss cycles
system.iocache.overall_mshr_miss_latency::tsunami.ide     22733604                       # number of overall MSHR miss cycles
system.iocache.overall_mshr_miss_latency::total     22733604                       # number of overall MSHR miss cycles
system.iocache.ReadReq_mshr_miss_rate::tsunami.ide            1                       # mshr miss rate for ReadReq accesses
system.iocache.ReadReq_mshr_miss_rate::total            1                       # mshr miss rate for ReadReq accesses
system.iocache.WriteInvalidateReq_mshr_miss_rate::tsunami.ide     0.999955                       # mshr miss rate for WriteInvalidateReq accesses
system.iocache.WriteInvalidateReq_mshr_miss_rate::total     0.999955                       # mshr miss rate for WriteInvalidateReq accesses
system.iocache.demand_mshr_miss_rate::tsunami.ide            1                       # mshr miss rate for demand accesses
system.iocache.demand_mshr_miss_rate::total            1                       # mshr miss rate for demand accesses
system.iocache.overall_mshr_miss_rate::tsunami.ide            1                       # mshr miss rate for overall accesses
system.iocache.overall_mshr_miss_rate::total            1                       # mshr miss rate for overall accesses
system.iocache.ReadReq_avg_mshr_miss_latency::tsunami.ide 108773.224880                       # average ReadReq mshr miss latency
system.iocache.ReadReq_avg_mshr_miss_latency::total 108773.224880                       # average ReadReq mshr miss latency
system.iocache.WriteInvalidateReq_avg_mshr_miss_latency::tsunami.ide 64233.703588                       # average WriteInvalidateReq mshr miss latency
system.iocache.WriteInvalidateReq_avg_mshr_miss_latency::total 64233.703588                       # average WriteInvalidateReq mshr miss latency
system.iocache.demand_avg_mshr_miss_latency::tsunami.ide 108773.224880                       # average overall mshr miss latency
system.iocache.demand_avg_mshr_miss_latency::total 108773.224880                       # average overall mshr miss latency
system.iocache.overall_avg_mshr_miss_latency::tsunami.ide 108773.224880                       # average overall mshr miss latency
system.iocache.overall_avg_mshr_miss_latency::total 108773.224880                       # average overall mshr miss latency
system.iocache.no_allocate_misses                   0                       # Number of misses that were no-allocate
system.disk0.dma_read_full_pages                    0                       # Number of full page size DMA reads (not PRD).
system.disk0.dma_read_bytes                      4096                       # Number of bytes transfered via DMA reads (not PRD).
system.disk0.dma_read_txs                           1                       # Number of DMA read transactions (not PRD).
system.disk0.dma_write_full_pages                 326                       # Number of full page size DMA writes.
system.disk0.dma_write_bytes                  2824192                       # Number of bytes transfered via DMA writes.
system.disk0.dma_write_txs                        365                       # Number of DMA write transactions.
system.disk2.dma_read_full_pages                    0                       # Number of full page size DMA reads (not PRD).
system.disk2.dma_read_bytes                         0                       # Number of bytes transfered via DMA reads (not PRD).
system.disk2.dma_read_txs                           0                       # Number of DMA read transactions (not PRD).
system.disk2.dma_write_full_pages                   1                       # Number of full page size DMA writes.
system.disk2.dma_write_bytes                     8192                       # Number of bytes transfered via DMA writes.
system.disk2.dma_write_txs                          1                       # Number of DMA write transactions.
system.cpu0.branchPred.lookups               23079465                       # Number of BP lookups
system.cpu0.branchPred.condPredicted         19477685                       # Number of conditional branches predicted
system.cpu0.branchPred.condIncorrect           504875                       # Number of conditional branches incorrect
system.cpu0.branchPred.BTBLookups            14819316                       # Number of BTB lookups
system.cpu0.branchPred.BTBHits                9587599                       # Number of BTB hits
system.cpu0.branchPred.BTBCorrect                   0                       # Number of correct BTB predictions (this stat may not work properly.
system.cpu0.branchPred.BTBHitPct            64.696636                       # BTB Hit Percentage
system.cpu0.branchPred.usedRAS                1458461                       # Number of times the RAS was used to get a target.
system.cpu0.branchPred.RASInCorrect             24661                       # Number of incorrect RAS predictions.
system.cpu_voltage_domain.voltage                   1                       # Voltage in Volts
system.cpu_clk_domain.clock                     10000                       # Clock period in ticks
system.cpu0.dtb.fetch_hits                          0                       # ITB hits
system.cpu0.dtb.fetch_misses                        0                       # ITB misses
system.cpu0.dtb.fetch_acv                           0                       # ITB acv
system.cpu0.dtb.fetch_accesses                      0                       # ITB accesses
system.cpu0.dtb.read_hits                    14505717                       # DTB read hits
system.cpu0.dtb.read_misses                     65602                       # DTB read misses
system.cpu0.dtb.read_acv                          120                       # DTB read access violations
system.cpu0.dtb.read_accesses                  850560                       # DTB read accesses
system.cpu0.dtb.write_hits                    6618919                       # DTB write hits
system.cpu0.dtb.write_misses                    13785                       # DTB write misses
system.cpu0.dtb.write_acv                         291                       # DTB write access violations
system.cpu0.dtb.write_accesses                 287090                       # DTB write accesses
system.cpu0.dtb.data_hits                    21124636                       # DTB hits
system.cpu0.dtb.data_misses                     79387                       # DTB misses
system.cpu0.dtb.data_acv                          411                       # DTB access violations
system.cpu0.dtb.data_accesses                 1137650                       # DTB accesses
system.cpu0.itb.fetch_hits                    1574623                       # ITB hits
system.cpu0.itb.fetch_misses                    21459                       # ITB misses
system.cpu0.itb.fetch_acv                         627                       # ITB acv
system.cpu0.itb.fetch_accesses                1596082                       # ITB accesses
system.cpu0.itb.read_hits                           0                       # DTB read hits
system.cpu0.itb.read_misses                         0                       # DTB read misses
system.cpu0.itb.read_acv                            0                       # DTB read access violations
system.cpu0.itb.read_accesses                       0                       # DTB read accesses
system.cpu0.itb.write_hits                          0                       # DTB write hits
system.cpu0.itb.write_misses                        0                       # DTB write misses
system.cpu0.itb.write_acv                           0                       # DTB write access violations
system.cpu0.itb.write_accesses                      0                       # DTB write accesses
system.cpu0.itb.data_hits                           0                       # DTB hits
system.cpu0.itb.data_misses                         0                       # DTB misses
system.cpu0.itb.data_acv                            0                       # DTB access violations
system.cpu0.itb.data_accesses                       0                       # DTB accesses
system.cpu0.numCycles                        71138631                       # number of cpu cycles simulated
system.cpu0.numWorkItemsStarted                     0                       # number of work items this cpu started
system.cpu0.numWorkItemsCompleted                   0                       # number of work items this cpu completed
system.cpu0.fetch.icacheStallCycles          21194319                       # Number of cycles fetch is stalled on an Icache miss
system.cpu0.fetch.Insts                     104040008                       # Number of instructions fetch has processed
system.cpu0.fetch.Branches                   23079465                       # Number of branches that fetch encountered
system.cpu0.fetch.predictedBranches          11046060                       # Number of branches that fetch has predicted taken
system.cpu0.fetch.Cycles                     47904132                       # Number of cycles fetch has run and was not squashing or blocked
system.cpu0.fetch.SquashCycles                1456834                       # Number of cycles fetch has spent squashing
system.cpu0.fetch.TlbCycles                       486                       # Number of cycles fetch has spent waiting for tlb
system.cpu0.fetch.MiscStallCycles               64286                       # Number of cycles fetch has spent waiting on interrupts, or bad addresses, or out of MSHRs
system.cpu0.fetch.PendingTrapStallCycles       724662                       # Number of stall cycles due to pending traps
system.cpu0.fetch.PendingQuiesceStallCycles       392000                       # Number of stall cycles due to pending quiesce instructions
system.cpu0.fetch.CacheLines                 12823150                       # Number of cache lines fetched
system.cpu0.fetch.IcacheSquashes               313772                       # Number of outstanding Icache misses that were squashed
system.cpu0.fetch.ItlbSquashes                     11                       # Number of outstanding ITLB misses that were squashed
system.cpu0.fetch.rateDist::samples          71008302                       # Number of instructions fetched each cycle (Total)
system.cpu0.fetch.rateDist::mean             1.465181                       # Number of instructions fetched each cycle (Total)
system.cpu0.fetch.rateDist::stdev            2.630494                       # Number of instructions fetched each cycle (Total)
system.cpu0.fetch.rateDist::underflows              0      0.00%      0.00% # Number of instructions fetched each cycle (Total)
system.cpu0.fetch.rateDist::0                49503095     69.71%     69.71% # Number of instructions fetched each cycle (Total)
system.cpu0.fetch.rateDist::1                 2330575      3.28%     73.00% # Number of instructions fetched each cycle (Total)
system.cpu0.fetch.rateDist::2                 2785791      3.92%     76.92% # Number of instructions fetched each cycle (Total)
system.cpu0.fetch.rateDist::3                 2424901      3.41%     80.33% # Number of instructions fetched each cycle (Total)
system.cpu0.fetch.rateDist::4                 4116410      5.80%     86.13% # Number of instructions fetched each cycle (Total)
system.cpu0.fetch.rateDist::5                  788472      1.11%     87.24% # Number of instructions fetched each cycle (Total)
system.cpu0.fetch.rateDist::6                 1693637      2.39%     89.63% # Number of instructions fetched each cycle (Total)
system.cpu0.fetch.rateDist::7                  630042      0.89%     90.51% # Number of instructions fetched each cycle (Total)
system.cpu0.fetch.rateDist::8                 6735379      9.49%    100.00% # Number of instructions fetched each cycle (Total)
system.cpu0.fetch.rateDist::overflows               0      0.00%    100.00% # Number of instructions fetched each cycle (Total)
system.cpu0.fetch.rateDist::min_value               0                       # Number of instructions fetched each cycle (Total)
system.cpu0.fetch.rateDist::max_value               8                       # Number of instructions fetched each cycle (Total)
system.cpu0.fetch.rateDist::total            71008302                       # Number of instructions fetched each cycle (Total)
system.cpu0.fetch.branchRate                 0.324429                       # Number of branch fetches per cycle
system.cpu0.fetch.rate                       1.462497                       # Number of inst fetches per cycle
system.cpu0.decode.IdleCycles                17829269                       # Number of cycles decode is idle
system.cpu0.decode.BlockedCycles             34462268                       # Number of cycles decode is blocked
system.cpu0.decode.RunCycles                 15893356                       # Number of cycles decode is running
system.cpu0.decode.UnblockCycles              2157037                       # Number of cycles decode is unblocking
system.cpu0.decode.SquashCycles                666371                       # Number of cycles decode is squashing
system.cpu0.decode.BranchResolved              758495                       # Number of times decode resolved a branch
system.cpu0.decode.BranchMispred                63873                       # Number of times decode detected a branch misprediction
system.cpu0.decode.DecodedInsts              94317953                       # Number of instructions handled by decode
system.cpu0.decode.SquashedInsts               194310                       # Number of squashed instructions handled by decode
system.cpu0.rename.SquashCycles                666371                       # Number of cycles rename is squashing
system.cpu0.rename.IdleCycles                18880848                       # Number of cycles rename is idle
system.cpu0.rename.BlockCycles               12258918                       # Number of cycles rename is blocking
system.cpu0.rename.serializeStallCycles      16427026                       # count of cycles rename stalled for serializing inst
system.cpu0.rename.RunCycles                 16961631                       # Number of cycles rename is running
system.cpu0.rename.UnblockCycles              5813506                       # Number of cycles rename is unblocking
system.cpu0.rename.RenamedInsts              91596591                       # Number of instructions processed by rename
system.cpu0.rename.ROBFullEvents               202659                       # Number of times rename has blocked due to ROB full
system.cpu0.rename.IQFullEvents               3912118                       # Number of times rename has blocked due to IQ full
system.cpu0.rename.LQFullEvents                 50251                       # Number of times rename has blocked due to LQ full
system.cpu0.rename.SQFullEvents                150469                       # Number of times rename has blocked due to SQ full
system.cpu0.rename.RenamedOperands           66618868                       # Number of destination operands rename has renamed
system.cpu0.rename.RenameLookups            117953588                       # Number of register rename lookups that rename has made
system.cpu0.rename.int_rename_lookups       117833187                       # Number of integer rename lookups
system.cpu0.rename.fp_rename_lookups           109655                       # Number of floating rename lookups
system.cpu0.rename.CommittedMaps             58689637                       # Number of HB maps that are committed
system.cpu0.rename.UndoneMaps                 7929231                       # Number of HB maps that are undone due to squashing
system.cpu0.rename.serializingInsts           1480809                       # count of serializing insts renamed
system.cpu0.rename.tempSerializingInsts        255370                       # count of temporary serializing insts renamed
system.cpu0.rename.skidInsts                 14036971                       # count of insts added to the skid buffer
system.cpu0.memDep0.insertedLoads            15246294                       # Number of loads inserted to the mem dependence unit.
system.cpu0.memDep0.insertedStores            7023563                       # Number of stores inserted to the mem dependence unit.
system.cpu0.memDep0.conflictingLoads          2195378                       # Number of conflicting loads.
system.cpu0.memDep0.conflictingStores         1459639                       # Number of conflicting stores.
system.cpu0.iq.iqInstsAdded                  85915650                       # Number of instructions added to the IQ (excludes non-spec)
system.cpu0.iq.iqNonSpecInstsAdded            2014430                       # Number of non-speculative instructions added to the IQ
system.cpu0.iq.iqInstsIssued                 83599335                       # Number of instructions issued
system.cpu0.iq.iqSquashedInstsIssued            88950                       # Number of squashed instructions issued
system.cpu0.iq.iqSquashedInstsExamined        9538220                       # Number of squashed instructions iterated over during squash; mainly for profiling
system.cpu0.iq.iqSquashedOperandsExamined      5014736                       # Number of squashed operands that are examined and possibly removed from graph
system.cpu0.iq.iqSquashedNonSpecRemoved       1277693                       # Number of squashed non-spec instructions that were removed
system.cpu0.iq.issued_per_cycle::samples     71008302                       # Number of insts issued each cycle
system.cpu0.iq.issued_per_cycle::mean        1.177318                       # Number of insts issued each cycle
system.cpu0.iq.issued_per_cycle::stdev       1.695446                       # Number of insts issued each cycle
system.cpu0.iq.issued_per_cycle::underflows            0      0.00%      0.00% # Number of insts issued each cycle
system.cpu0.iq.issued_per_cycle::0           37005803     52.11%     52.11% # Number of insts issued each cycle
system.cpu0.iq.issued_per_cycle::1           14413667     20.30%     72.41% # Number of insts issued each cycle
system.cpu0.iq.issued_per_cycle::2            6236128      8.78%     81.20% # Number of insts issued each cycle
system.cpu0.iq.issued_per_cycle::3            4780942      6.73%     87.93% # Number of insts issued each cycle
system.cpu0.iq.issued_per_cycle::4            4119992      5.80%     93.73% # Number of insts issued each cycle
system.cpu0.iq.issued_per_cycle::5            2068517      2.91%     96.64% # Number of insts issued each cycle
system.cpu0.iq.issued_per_cycle::6            1380598      1.94%     98.59% # Number of insts issued each cycle
system.cpu0.iq.issued_per_cycle::7             756795      1.07%     99.65% # Number of insts issued each cycle
system.cpu0.iq.issued_per_cycle::8             245860      0.35%    100.00% # Number of insts issued each cycle
system.cpu0.iq.issued_per_cycle::overflows            0      0.00%    100.00% # Number of insts issued each cycle
system.cpu0.iq.issued_per_cycle::min_value            0                       # Number of insts issued each cycle
system.cpu0.iq.issued_per_cycle::max_value            8                       # Number of insts issued each cycle
system.cpu0.iq.issued_per_cycle::total       71008302                       # Number of insts issued each cycle
system.cpu0.iq.fu_full::No_OpClass                  0      0.00%      0.00% # attempts to use FU when none available
system.cpu0.iq.fu_full::IntAlu                 419592     29.34%     29.34% # attempts to use FU when none available
system.cpu0.iq.fu_full::IntMult                     3      0.00%     29.34% # attempts to use FU when none available
system.cpu0.iq.fu_full::IntDiv                      0      0.00%     29.34% # attempts to use FU when none available
system.cpu0.iq.fu_full::FloatAdd                    0      0.00%     29.34% # attempts to use FU when none available
system.cpu0.iq.fu_full::FloatCmp                    0      0.00%     29.34% # attempts to use FU when none available
system.cpu0.iq.fu_full::FloatCvt                    0      0.00%     29.34% # attempts to use FU when none available
system.cpu0.iq.fu_full::FloatMult                   0      0.00%     29.34% # attempts to use FU when none available
system.cpu0.iq.fu_full::FloatDiv                    0      0.00%     29.34% # attempts to use FU when none available
system.cpu0.iq.fu_full::FloatSqrt                   0      0.00%     29.34% # attempts to use FU when none available
system.cpu0.iq.fu_full::SimdAdd                     0      0.00%     29.34% # attempts to use FU when none available
system.cpu0.iq.fu_full::SimdAddAcc                  0      0.00%     29.34% # attempts to use FU when none available
system.cpu0.iq.fu_full::SimdAlu                     0      0.00%     29.34% # attempts to use FU when none available
system.cpu0.iq.fu_full::SimdCmp                     0      0.00%     29.34% # attempts to use FU when none available
system.cpu0.iq.fu_full::SimdCvt                     0      0.00%     29.34% # attempts to use FU when none available
system.cpu0.iq.fu_full::SimdMisc                    0      0.00%     29.34% # attempts to use FU when none available
system.cpu0.iq.fu_full::SimdMult                    0      0.00%     29.34% # attempts to use FU when none available
system.cpu0.iq.fu_full::SimdMultAcc                 0      0.00%     29.34% # attempts to use FU when none available
system.cpu0.iq.fu_full::SimdShift                   0      0.00%     29.34% # attempts to use FU when none available
system.cpu0.iq.fu_full::SimdShiftAcc                0      0.00%     29.34% # attempts to use FU when none available
system.cpu0.iq.fu_full::SimdSqrt                    0      0.00%     29.34% # attempts to use FU when none available
system.cpu0.iq.fu_full::SimdFloatAdd                0      0.00%     29.34% # attempts to use FU when none available
system.cpu0.iq.fu_full::SimdFloatAlu                0      0.00%     29.34% # attempts to use FU when none available
system.cpu0.iq.fu_full::SimdFloatCmp                0      0.00%     29.34% # attempts to use FU when none available
system.cpu0.iq.fu_full::SimdFloatCvt                0      0.00%     29.34% # attempts to use FU when none available
system.cpu0.iq.fu_full::SimdFloatDiv                0      0.00%     29.34% # attempts to use FU when none available
system.cpu0.iq.fu_full::SimdFloatMisc               0      0.00%     29.34% # attempts to use FU when none available
system.cpu0.iq.fu_full::SimdFloatMult               0      0.00%     29.34% # attempts to use FU when none available
system.cpu0.iq.fu_full::SimdFloatMultAcc            0      0.00%     29.34% # attempts to use FU when none available
system.cpu0.iq.fu_full::SimdFloatSqrt               0      0.00%     29.34% # attempts to use FU when none available
system.cpu0.iq.fu_full::MemRead                604017     42.24%     71.58% # attempts to use FU when none available
system.cpu0.iq.fu_full::MemWrite               406436     28.42%    100.00% # attempts to use FU when none available
system.cpu0.iq.fu_full::IprAccess                   0      0.00%    100.00% # attempts to use FU when none available
system.cpu0.iq.fu_full::InstPrefetch                0      0.00%    100.00% # attempts to use FU when none available
system.cpu0.iq.FU_type_0::No_OpClass             6746      0.01%      0.01% # Type of FU issued
system.cpu0.iq.FU_type_0::IntAlu             60759687     72.68%     72.69% # Type of FU issued
system.cpu0.iq.FU_type_0::IntMult              139382      0.17%     72.85% # Type of FU issued
system.cpu0.iq.FU_type_0::IntDiv                    0      0.00%     72.85% # Type of FU issued
system.cpu0.iq.FU_type_0::FloatAdd              72382      0.09%     72.94% # Type of FU issued
system.cpu0.iq.FU_type_0::FloatCmp                  0      0.00%     72.94% # Type of FU issued
system.cpu0.iq.FU_type_0::FloatCvt                  0      0.00%     72.94% # Type of FU issued
system.cpu0.iq.FU_type_0::FloatMult                 0      0.00%     72.94% # Type of FU issued
system.cpu0.iq.FU_type_0::FloatDiv               3372      0.00%     72.95% # Type of FU issued
system.cpu0.iq.FU_type_0::FloatSqrt                 0      0.00%     72.95% # Type of FU issued
system.cpu0.iq.FU_type_0::SimdAdd                   0      0.00%     72.95% # Type of FU issued
system.cpu0.iq.FU_type_0::SimdAddAcc                0      0.00%     72.95% # Type of FU issued
system.cpu0.iq.FU_type_0::SimdAlu                   0      0.00%     72.95% # Type of FU issued
system.cpu0.iq.FU_type_0::SimdCmp                   0      0.00%     72.95% # Type of FU issued
system.cpu0.iq.FU_type_0::SimdCvt                   0      0.00%     72.95% # Type of FU issued
system.cpu0.iq.FU_type_0::SimdMisc                  0      0.00%     72.95% # Type of FU issued
system.cpu0.iq.FU_type_0::SimdMult                  0      0.00%     72.95% # Type of FU issued
system.cpu0.iq.FU_type_0::SimdMultAcc               0      0.00%     72.95% # Type of FU issued
system.cpu0.iq.FU_type_0::SimdShift                 0      0.00%     72.95% # Type of FU issued
[...]
system.cpu1.dcache.overall_mshr_hits::total         4818                       # number of overall MSHR hits
system.cpu1.dcache.ReadReq_mshr_misses::cpu1.data          967                       # number of ReadReq MSHR misses
system.cpu1.dcache.ReadReq_mshr_misses::total          967                       # number of ReadReq MSHR misses
system.cpu1.dcache.WriteReq_mshr_misses::cpu1.data          504                       # number of WriteReq MSHR misses
system.cpu1.dcache.WriteReq_mshr_misses::total          504                       # number of WriteReq MSHR misses
system.cpu1.dcache.LoadLockedReq_mshr_misses::cpu1.data           41                       # number of LoadLockedReq MSHR misses
system.cpu1.dcache.LoadLockedReq_mshr_misses::total           41                       # number of LoadLockedReq MSHR misses
system.cpu1.dcache.StoreCondReq_mshr_misses::cpu1.data           16                       # number of StoreCondReq MSHR misses
system.cpu1.dcache.StoreCondReq_mshr_misses::total           16                       # number of StoreCondReq MSHR misses
system.cpu1.dcache.demand_mshr_misses::cpu1.data         1471                       # number of demand (read+write) MSHR misses
system.cpu1.dcache.demand_mshr_misses::total         1471                       # number of demand (read+write) MSHR misses
system.cpu1.dcache.overall_mshr_misses::cpu1.data         1471                       # number of overall MSHR misses
system.cpu1.dcache.overall_mshr_misses::total         1471                       # number of overall MSHR misses
system.cpu1.dcache.ReadReq_mshr_miss_latency::cpu1.data     75734502                       # number of ReadReq MSHR miss cycles
system.cpu1.dcache.ReadReq_mshr_miss_latency::total     75734502                       # number of ReadReq MSHR miss cycles
system.cpu1.dcache.WriteReq_mshr_miss_latency::cpu1.data     40316518                       # number of WriteReq MSHR miss cycles
system.cpu1.dcache.WriteReq_mshr_miss_latency::total     40316518                       # number of WriteReq MSHR miss cycles
system.cpu1.dcache.LoadLockedReq_mshr_miss_latency::cpu1.data      2942500                       # number of LoadLockedReq MSHR miss cycles
system.cpu1.dcache.LoadLockedReq_mshr_miss_latency::total      2942500                       # number of LoadLockedReq MSHR miss cycles
system.cpu1.dcache.StoreCondReq_mshr_miss_latency::cpu1.data       610002                       # number of StoreCondReq MSHR miss cycles
system.cpu1.dcache.StoreCondReq_mshr_miss_latency::total       610002                       # number of StoreCondReq MSHR miss cycles
system.cpu1.dcache.demand_mshr_miss_latency::cpu1.data    116051020                       # number of demand (read+write) MSHR miss cycles
system.cpu1.dcache.demand_mshr_miss_latency::total    116051020                       # number of demand (read+write) MSHR miss cycles
system.cpu1.dcache.overall_mshr_miss_latency::cpu1.data    116051020                       # number of overall MSHR miss cycles
system.cpu1.dcache.overall_mshr_miss_latency::total    116051020                       # number of overall MSHR miss cycles
system.cpu1.dcache.WriteReq_mshr_uncacheable_latency::cpu1.data      2200000                       # number of WriteReq MSHR uncacheable cycles
system.cpu1.dcache.WriteReq_mshr_uncacheable_latency::total      2200000                       # number of WriteReq MSHR uncacheable cycles
system.cpu1.dcache.overall_mshr_uncacheable_latency::cpu1.data      2200000                       # number of overall MSHR uncacheable cycles
system.cpu1.dcache.overall_mshr_uncacheable_latency::total      2200000                       # number of overall MSHR uncacheable cycles
system.cpu1.dcache.ReadReq_mshr_miss_rate::cpu1.data     0.035029                       # mshr miss rate for ReadReq accesses
system.cpu1.dcache.ReadReq_mshr_miss_rate::total     0.035029                       # mshr miss rate for ReadReq accesses
system.cpu1.dcache.WriteReq_mshr_miss_rate::cpu1.data     0.036713                       # mshr miss rate for WriteReq accesses
system.cpu1.dcache.WriteReq_mshr_miss_rate::total     0.036713                       # mshr miss rate for WriteReq accesses
system.cpu1.dcache.LoadLockedReq_mshr_miss_rate::cpu1.data     0.071057                       # mshr miss rate for LoadLockedReq accesses
system.cpu1.dcache.LoadLockedReq_mshr_miss_rate::total     0.071057                       # mshr miss rate for LoadLockedReq accesses
system.cpu1.dcache.StoreCondReq_mshr_miss_rate::cpu1.data     0.031936                       # mshr miss rate for StoreCondReq accesses
system.cpu1.dcache.StoreCondReq_mshr_miss_rate::total     0.031936                       # mshr miss rate for StoreCondReq accesses
system.cpu1.dcache.demand_mshr_miss_rate::cpu1.data     0.035588                       # mshr miss rate for demand accesses
system.cpu1.dcache.demand_mshr_miss_rate::total     0.035588                       # mshr miss rate for demand accesses
system.cpu1.dcache.overall_mshr_miss_rate::cpu1.data     0.035588                       # mshr miss rate for overall accesses
system.cpu1.dcache.overall_mshr_miss_rate::total     0.035588                       # mshr miss rate for overall accesses
system.cpu1.dcache.ReadReq_avg_mshr_miss_latency::cpu1.data 78319.029990                       # average ReadReq mshr miss latency
system.cpu1.dcache.ReadReq_avg_mshr_miss_latency::total 78319.029990                       # average ReadReq mshr miss latency
system.cpu1.dcache.WriteReq_avg_mshr_miss_latency::cpu1.data 79993.091270                       # average WriteReq mshr miss latency
system.cpu1.dcache.WriteReq_avg_mshr_miss_latency::total 79993.091270                       # average WriteReq mshr miss latency
system.cpu1.dcache.LoadLockedReq_avg_mshr_miss_latency::cpu1.data 71768.292683                       # average LoadLockedReq mshr miss latency
system.cpu1.dcache.LoadLockedReq_avg_mshr_miss_latency::total 71768.292683                       # average LoadLockedReq mshr miss latency
system.cpu1.dcache.StoreCondReq_avg_mshr_miss_latency::cpu1.data 38125.125000                       # average StoreCondReq mshr miss latency
system.cpu1.dcache.StoreCondReq_avg_mshr_miss_latency::total 38125.125000                       # average StoreCondReq mshr miss latency
system.cpu1.dcache.demand_avg_mshr_miss_latency::cpu1.data 78892.603671                       # average overall mshr miss latency
system.cpu1.dcache.demand_avg_mshr_miss_latency::total 78892.603671                       # average overall mshr miss latency
system.cpu1.dcache.overall_avg_mshr_miss_latency::cpu1.data 78892.603671                       # average overall mshr miss latency
system.cpu1.dcache.overall_avg_mshr_miss_latency::total 78892.603671                       # average overall mshr miss latency
system.cpu1.dcache.WriteReq_avg_mshr_uncacheable_latency::cpu1.data          inf                       # average WriteReq mshr uncacheable latency
system.cpu1.dcache.WriteReq_avg_mshr_uncacheable_latency::total          inf                       # average WriteReq mshr uncacheable latency
system.cpu1.dcache.overall_avg_mshr_uncacheable_latency::cpu1.data          inf                       # average overall mshr uncacheable latency
system.cpu1.dcache.overall_avg_mshr_uncacheable_latency::total          inf                       # average overall mshr uncacheable latency
system.cpu1.dcache.no_allocate_misses               0                       # Number of misses that were no-allocate
system.cpu0.kern.inst.arm                           0                       # number of arm instructions executed
system.cpu0.kern.inst.quiesce                       3                       # number of quiesce instructions executed
system.cpu0.kern.inst.hwrei                      1929                       # number of hwrei instructions executed
system.cpu0.kern.ipl_count::0                     448     45.53%     45.53% # number of times we switched to this ipl
system.cpu0.kern.ipl_count::22                      7      0.71%     46.24% # number of times we switched to this ipl
system.cpu0.kern.ipl_count::30                      1      0.10%     46.34% # number of times we switched to this ipl
system.cpu0.kern.ipl_count::31                    528     53.66%    100.00% # number of times we switched to this ipl
system.cpu0.kern.ipl_count::total                 984                       # number of times we switched to this ipl
system.cpu0.kern.ipl_good::0                      446     49.61%     49.61% # number of times we switched to this ipl from a different ipl
system.cpu0.kern.ipl_good::22                       7      0.78%     50.39% # number of times we switched to this ipl from a different ipl
system.cpu0.kern.ipl_good::30                       1      0.11%     50.50% # number of times we switched to this ipl from a different ipl
system.cpu0.kern.ipl_good::31                     445     49.50%    100.00% # number of times we switched to this ipl from a different ipl
system.cpu0.kern.ipl_good::total                  899                       # number of times we switched to this ipl from a different ipl
system.cpu0.kern.ipl_ticks::0              6550560000     88.26%     88.26% # number of cycles we spent at this ipl
system.cpu0.kern.ipl_ticks::22               14000000      0.19%     88.45% # number of cycles we spent at this ipl
system.cpu0.kern.ipl_ticks::30                3990000      0.05%     88.51% # number of cycles we spent at this ipl
system.cpu0.kern.ipl_ticks::31              853100000     11.49%    100.00% # number of cycles we spent at this ipl
system.cpu0.kern.ipl_ticks::total          7421650000                       # number of cycles we spent at this ipl
system.cpu0.kern.ipl_used::0                 0.995536                       # fraction of swpipl calls that actually changed the ipl
system.cpu0.kern.ipl_used::22                       1                       # fraction of swpipl calls that actually changed the ipl
system.cpu0.kern.ipl_used::30                       1                       # fraction of swpipl calls that actually changed the ipl
system.cpu0.kern.ipl_used::31                0.842803                       # fraction of swpipl calls that actually changed the ipl
system.cpu0.kern.ipl_used::total             0.913618                       # fraction of swpipl calls that actually changed the ipl
system.cpu0.kern.syscall::2                         1      7.14%      7.14% # number of syscalls executed
system.cpu0.kern.syscall::3                         2     14.29%     21.43% # number of syscalls executed
system.cpu0.kern.syscall::6                         1      7.14%     28.57% # number of syscalls executed
system.cpu0.kern.syscall::17                        1      7.14%     35.71% # number of syscalls executed
system.cpu0.kern.syscall::33                        1      7.14%     42.86% # number of syscalls executed
system.cpu0.kern.syscall::45                        3     21.43%     64.29% # number of syscalls executed
system.cpu0.kern.syscall::71                        4     28.57%     92.86% # number of syscalls executed
system.cpu0.kern.syscall::74                        1      7.14%    100.00% # number of syscalls executed
system.cpu0.kern.syscall::total                    14                       # number of syscalls executed
system.cpu0.kern.callpal::wripir                    2      0.18%      0.18% # number of callpals executed
system.cpu0.kern.callpal::swpctx                   65      5.97%      6.15% # number of callpals executed
system.cpu0.kern.callpal::tbi                       1      0.09%      6.24% # number of callpals executed
system.cpu0.kern.callpal::swpipl                  851     78.15%     84.39% # number of callpals executed
system.cpu0.kern.callpal::rdps                     16      1.47%     85.86% # number of callpals executed
system.cpu0.kern.callpal::wrusp                     1      0.09%     85.95% # number of callpals executed
system.cpu0.kern.callpal::rdusp                     1      0.09%     86.04% # number of callpals executed
system.cpu0.kern.callpal::rti                     125     11.48%     97.52% # number of callpals executed
system.cpu0.kern.callpal::callsys                  25      2.30%     99.82% # number of callpals executed
system.cpu0.kern.callpal::imb                       2      0.18%    100.00% # number of callpals executed
system.cpu0.kern.callpal::total                  1089                       # number of callpals executed
system.cpu0.kern.mode_switch::kernel              190                       # number of protection mode switches
system.cpu0.kern.mode_switch::user                118                       # number of protection mode switches
system.cpu0.kern.mode_switch::idle                  0                       # number of protection mode switches
system.cpu0.kern.mode_good::kernel                118                      
system.cpu0.kern.mode_good::user                  118                      
system.cpu0.kern.mode_good::idle                    0                      
system.cpu0.kern.mode_switch_good::kernel     0.621053                       # fraction of useful protection mode switches
system.cpu0.kern.mode_switch_good::user             1                       # fraction of useful protection mode switches
system.cpu0.kern.mode_switch_good::idle           nan                       # fraction of useful protection mode switches
system.cpu0.kern.mode_switch_good::total     0.766234                       # fraction of useful protection mode switches
system.cpu0.kern.mode_ticks::kernel        5149750000     69.39%     69.39% # number of ticks spent at the given mode
system.cpu0.kern.mode_ticks::user          2271900000     30.61%    100.00% # number of ticks spent at the given mode
system.cpu0.kern.mode_ticks::idle                   0      0.00%    100.00% # number of ticks spent at the given mode
system.cpu0.kern.swap_context                      65                       # number of times the context was actually changed
system.cpu1.kern.inst.arm                           0                       # number of arm instructions executed
system.cpu1.kern.inst.quiesce                       7                       # number of quiesce instructions executed
system.cpu1.kern.inst.hwrei                       914                       # number of hwrei instructions executed
system.cpu1.kern.ipl_count::0                     123     39.05%     39.05% # number of times we switched to this ipl
system.cpu1.kern.ipl_count::22                      7      2.22%     41.27% # number of times we switched to this ipl
system.cpu1.kern.ipl_count::30                      2      0.63%     41.90% # number of times we switched to this ipl
system.cpu1.kern.ipl_count::31                    183     58.10%    100.00% # number of times we switched to this ipl
system.cpu1.kern.ipl_count::total                 315                       # number of times we switched to this ipl
system.cpu1.kern.ipl_good::0                      123     48.62%     48.62% # number of times we switched to this ipl from a different ipl
system.cpu1.kern.ipl_good::22                       7      2.77%     51.38% # number of times we switched to this ipl from a different ipl
system.cpu1.kern.ipl_good::30                       2      0.79%     52.17% # number of times we switched to this ipl from a different ipl
system.cpu1.kern.ipl_good::31                     121     47.83%    100.00% # number of times we switched to this ipl from a different ipl
system.cpu1.kern.ipl_good::total                  253                       # number of times we switched to this ipl from a different ipl
system.cpu1.kern.ipl_ticks::0              6527310000     95.43%     95.43% # number of cycles we spent at this ipl
system.cpu1.kern.ipl_ticks::22               11320000      0.17%     95.60% # number of cycles we spent at this ipl
system.cpu1.kern.ipl_ticks::30               11320000      0.17%     95.76% # number of cycles we spent at this ipl
system.cpu1.kern.ipl_ticks::31              289740000      4.24%    100.00% # number of cycles we spent at this ipl
system.cpu1.kern.ipl_ticks::total          6839690000                       # number of cycles we spent at this ipl
system.cpu1.kern.ipl_used::0                        1                       # fraction of swpipl calls that actually changed the ipl
system.cpu1.kern.ipl_used::22                       1                       # fraction of swpipl calls that actually changed the ipl
system.cpu1.kern.ipl_used::30                       1                       # fraction of swpipl calls that actually changed the ipl
system.cpu1.kern.ipl_used::31                0.661202                       # fraction of swpipl calls that actually changed the ipl
system.cpu1.kern.ipl_used::total             0.803175                       # fraction of swpipl calls that actually changed the ipl
system.cpu1.kern.syscall::6                         1     33.33%     33.33% # number of syscalls executed
system.cpu1.kern.syscall::48                        1     33.33%     66.67% # number of syscalls executed
system.cpu1.kern.syscall::59                        1     33.33%    100.00% # number of syscalls executed
system.cpu1.kern.syscall::total                     3                       # number of syscalls executed
system.cpu1.kern.callpal::wripir                    1      0.25%      0.25% # number of callpals executed
system.cpu1.kern.callpal::swpctx                   58     14.65%     14.90% # number of callpals executed
system.cpu1.kern.callpal::tbi                       5      1.26%     16.16% # number of callpals executed
system.cpu1.kern.callpal::swpipl                  230     58.08%     74.24% # number of callpals executed
system.cpu1.kern.callpal::rdps                     15      3.79%     78.03% # number of callpals executed
system.cpu1.kern.callpal::rti                      76     19.19%     97.22% # number of callpals executed
system.cpu1.kern.callpal::callsys                   9      2.27%     99.49% # number of callpals executed
system.cpu1.kern.callpal::imb                       2      0.51%    100.00% # number of callpals executed
system.cpu1.kern.callpal::total                   396                       # number of callpals executed
system.cpu1.kern.mode_switch::kernel              125                       # number of protection mode switches
system.cpu1.kern.mode_switch::user                 67                       # number of protection mode switches
system.cpu1.kern.mode_switch::idle                  9                       # number of protection mode switches
system.cpu1.kern.mode_good::kernel                 68                      
system.cpu1.kern.mode_good::user                   67                      
system.cpu1.kern.mode_good::idle                    1                      
system.cpu1.kern.mode_switch_good::kernel     0.544000                       # fraction of useful protection mode switches
system.cpu1.kern.mode_switch_good::user             1                       # fraction of useful protection mode switches
system.cpu1.kern.mode_switch_good::idle      0.111111                       # fraction of useful protection mode switches
system.cpu1.kern.mode_switch_good::total     0.676617                       # fraction of useful protection mode switches
system.cpu1.kern.mode_ticks::kernel        1056250000     13.95%     13.95% # number of ticks spent at the given mode
system.cpu1.kern.mode_ticks::user           645840000      8.53%     22.48% # number of ticks spent at the given mode
system.cpu1.kern.mode_ticks::idle          5868020000     77.52%    100.00% # number of ticks spent at the given mode
system.cpu1.kern.swap_context                      58                       # number of times the context was actually changed

---------- End Simulation Statistics   ----------
