
---------- Begin Simulation Statistics ----------
sim_seconds                                  3.072374                       # Number of seconds simulated
sim_ticks                                3072374260000                       # Number of ticks simulated
final_tick                               3072374260000                       # Number of ticks from beginning of simulation (restored from checkpoints and never reset)
sim_freq                                 1000000000000                       # Frequency of simulated ticks
host_inst_rate                                3528107                       # Simulator instruction rate (inst/s)
host_op_rate                                  3528104                       # Simulator op (including micro ops) rate (op/s)
host_tick_rate                            94550561821                       # Simulator tick rate (ticks/s)
host_mem_usage                                 461036                       # Number of bytes of host memory used
host_seconds                                    32.49                       # Real time elapsed on the host
sim_insts                                   114643943                       # Number of instructions simulated
sim_ops                                     114643943                       # Number of ops (including micro ops) simulated
system.voltage_domain.voltage                       1                       # Voltage in Volts
system.clk_domain.clock                          1000                       # Clock period in ticks
system.mem_ctrls.bytes_read::cpu0.inst       40334144                       # Number of bytes read from this memory
system.mem_ctrls.bytes_read::cpu0.data      155411328                       # Number of bytes read from this memory
system.mem_ctrls.bytes_read::tsunami.ide        13312                       # Number of bytes read from this memory
system.mem_ctrls.bytes_read::cpu1.inst        3154432                       # Number of bytes read from this memory
system.mem_ctrls.bytes_read::cpu1.data        1771264                       # Number of bytes read from this memory
system.mem_ctrls.bytes_read::cpu2.inst       30391808                       # Number of bytes read from this memory
system.mem_ctrls.bytes_read::cpu2.data       14570176                       # Number of bytes read from this memory
system.mem_ctrls.bytes_read::cpu3.inst       22908352                       # Number of bytes read from this memory
system.mem_ctrls.bytes_read::cpu3.data        4710144                       # Number of bytes read from this memory
system.mem_ctrls.bytes_read::total          273264960                       # Number of bytes read from this memory
system.mem_ctrls.bytes_inst_read::cpu0.inst     40334144                       # Number of instructions bytes read from this memory
system.mem_ctrls.bytes_inst_read::cpu1.inst      3154432                       # Number of instructions bytes read from this memory
system.mem_ctrls.bytes_inst_read::cpu2.inst     30391808                       # Number of instructions bytes read from this memory
system.mem_ctrls.bytes_inst_read::cpu3.inst     22908352                       # Number of instructions bytes read from this memory
system.mem_ctrls.bytes_inst_read::total      96788736                       # Number of instructions bytes read from this memory
system.mem_ctrls.bytes_written::writebacks     29376064                       # Number of bytes written to this memory
system.mem_ctrls.bytes_written::tsunami.ide      2832384                       # Number of bytes written to this memory
system.mem_ctrls.bytes_written::total        32208448                       # Number of bytes written to this memory
system.mem_ctrls.num_reads::cpu0.inst          630221                       # Number of read requests responded to by this memory
system.mem_ctrls.num_reads::cpu0.data         2428302                       # Number of read requests responded to by this memory
system.mem_ctrls.num_reads::tsunami.ide           208                       # Number of read requests responded to by this memory
system.mem_ctrls.num_reads::cpu1.inst           49288                       # Number of read requests responded to by this memory
system.mem_ctrls.num_reads::cpu1.data           27676                       # Number of read requests responded to by this memory
system.mem_ctrls.num_reads::cpu2.inst          474872                       # Number of read requests responded to by this memory
system.mem_ctrls.num_reads::cpu2.data          227659                       # Number of read requests responded to by this memory
system.mem_ctrls.num_reads::cpu3.inst          357943                       # Number of read requests responded to by this memory
system.mem_ctrls.num_reads::cpu3.data           73596                       # Number of read requests responded to by this memory
system.mem_ctrls.num_reads::total             4269765                       # Number of read requests responded to by this memory
system.mem_ctrls.num_writes::writebacks        459001                       # Number of write requests responded to by this memory
system.mem_ctrls.num_writes::tsunami.ide        44256                       # Number of write requests responded to by this memory
system.mem_ctrls.num_writes::total             503257                       # Number of write requests responded to by this memory
system.mem_ctrls.bw_read::cpu0.inst          13128005                       # Total read bandwidth from this memory (bytes/s)
system.mem_ctrls.bw_read::cpu0.data          50583462                       # Total read bandwidth from this memory (bytes/s)
system.mem_ctrls.bw_read::tsunami.ide            4333                       # Total read bandwidth from this memory (bytes/s)
system.mem_ctrls.bw_read::cpu1.inst           1026708                       # Total read bandwidth from this memory (bytes/s)
system.mem_ctrls.bw_read::cpu1.data            576513                       # Total read bandwidth from this memory (bytes/s)
system.mem_ctrls.bw_read::cpu2.inst           9891962                       # Total read bandwidth from this memory (bytes/s)
system.mem_ctrls.bw_read::cpu2.data           4742318                       # Total read bandwidth from this memory (bytes/s)
system.mem_ctrls.bw_read::cpu3.inst           7456237                       # Total read bandwidth from this memory (bytes/s)
system.mem_ctrls.bw_read::cpu3.data           1533063                       # Total read bandwidth from this memory (bytes/s)
system.mem_ctrls.bw_read::total              88942602                       # Total read bandwidth from this memory (bytes/s)
system.mem_ctrls.bw_inst_read::cpu0.inst     13128005                       # Instruction read bandwidth from this memory (bytes/s)
system.mem_ctrls.bw_inst_read::cpu1.inst      1026708                       # Instruction read bandwidth from this memory (bytes/s)
system.mem_ctrls.bw_inst_read::cpu2.inst      9891962                       # Instruction read bandwidth from this memory (bytes/s)
system.mem_ctrls.bw_inst_read::cpu3.inst      7456237                       # Instruction read bandwidth from this memory (bytes/s)
system.mem_ctrls.bw_inst_read::total         31502912                       # Instruction read bandwidth from this memory (bytes/s)
system.mem_ctrls.bw_write::writebacks         9561356                       # Write bandwidth from this memory (bytes/s)
system.mem_ctrls.bw_write::tsunami.ide         921888                       # Write bandwidth from this memory (bytes/s)
system.mem_ctrls.bw_write::total             10483244                       # Write bandwidth from this memory (bytes/s)
system.mem_ctrls.bw_total::writebacks         9561356                       # Total bandwidth to/from this memory (bytes/s)
system.mem_ctrls.bw_total::cpu0.inst         13128005                       # Total bandwidth to/from this memory (bytes/s)
system.mem_ctrls.bw_total::cpu0.data         50583462                       # Total bandwidth to/from this memory (bytes/s)
system.mem_ctrls.bw_total::tsunami.ide         926220                       # Total bandwidth to/from this memory (bytes/s)
system.mem_ctrls.bw_total::cpu1.inst          1026708                       # Total bandwidth to/from this memory (bytes/s)
system.mem_ctrls.bw_total::cpu1.data           576513                       # Total bandwidth to/from this memory (bytes/s)
system.mem_ctrls.bw_total::cpu2.inst          9891962                       # Total bandwidth to/from this memory (bytes/s)
system.mem_ctrls.bw_total::cpu2.data          4742318                       # Total bandwidth to/from this memory (bytes/s)
system.mem_ctrls.bw_total::cpu3.inst          7456237                       # Total bandwidth to/from this memory (bytes/s)
system.mem_ctrls.bw_total::cpu3.data          1533063                       # Total bandwidth to/from this memory (bytes/s)
system.mem_ctrls.bw_total::total             99425845                       # Total bandwidth to/from this memory (bytes/s)
system.mem_ctrls.readReqs                           0                       # Number of read requests accepted
system.mem_ctrls.writeReqs                          0                       # Number of write requests accepted
system.mem_ctrls.readBursts                         0                       # Number of DRAM read bursts, including those serviced by the write queue
system.mem_ctrls.writeBursts                        0                       # Number of DRAM write bursts, including those merged in the write queue
system.mem_ctrls.bytesReadDRAM                      0                       # Total number of bytes read from DRAM
system.mem_ctrls.bytesReadWrQ                       0                       # Total number of bytes read from write queue
system.mem_ctrls.bytesWritten                       0                       # Total number of bytes written to DRAM
system.mem_ctrls.bytesReadSys                       0                       # Total read bytes from the system interface side
system.mem_ctrls.bytesWrittenSys                    0                       # Total written bytes from the system interface side
system.mem_ctrls.servicedByWrQ                      0                       # Number of DRAM read bursts serviced by the write queue
system.mem_ctrls.mergedWrBursts                     0                       # Number of DRAM write bursts merged with an existing one
system.mem_ctrls.neitherReadNorWriteReqs            0                       # Number of requests that are neither read nor write
system.mem_ctrls.perBankRdBursts::0                 0                       # Per bank write bursts
system.mem_ctrls.perBankRdBursts::1                 0                       # Per bank write bursts
system.mem_ctrls.perBankRdBursts::2                 0                       # Per bank write bursts
system.mem_ctrls.perBankRdBursts::3                 0                       # Per bank write bursts
system.mem_ctrls.perBankRdBursts::4                 0                       # Per bank write bursts
system.mem_ctrls.perBankRdBursts::5                 0                       # Per bank write bursts
system.mem_ctrls.perBankRdBursts::6                 0                       # Per bank write bursts
system.mem_ctrls.perBankRdBursts::7                 0                       # Per bank write bursts
system.mem_ctrls.perBankRdBursts::8                 0                       # Per bank write bursts
system.mem_ctrls.perBankRdBursts::9                 0                       # Per bank write bursts
system.mem_ctrls.perBankRdBursts::10                0                       # Per bank write bursts
system.mem_ctrls.perBankRdBursts::11                0                       # Per bank write bursts
system.mem_ctrls.perBankRdBursts::12                0                       # Per bank write bursts
system.mem_ctrls.perBankRdBursts::13                0                       # Per bank write bursts
system.mem_ctrls.perBankRdBursts::14                0                       # Per bank write bursts
system.mem_ctrls.perBankRdBursts::15                0                       # Per bank write bursts
system.mem_ctrls.perBankWrBursts::0                 0                       # Per bank write bursts
system.mem_ctrls.perBankWrBursts::1                 0                       # Per bank write bursts
system.mem_ctrls.perBankWrBursts::2                 0                       # Per bank write bursts
system.mem_ctrls.perBankWrBursts::3                 0                       # Per bank write bursts
system.mem_ctrls.perBankWrBursts::4                 0                       # Per bank write bursts
system.mem_ctrls.perBankWrBursts::5                 0                       # Per bank write bursts
system.mem_ctrls.perBankWrBursts::6                 0                       # Per bank write bursts
system.mem_ctrls.perBankWrBursts::7                 0                       # Per bank write bursts
system.mem_ctrls.perBankWrBursts::8                 0                       # Per bank write bursts
system.mem_ctrls.perBankWrBursts::9                 0                       # Per bank write bursts
system.mem_ctrls.perBankWrBursts::10                0                       # Per bank write bursts
system.mem_ctrls.perBankWrBursts::11                0                       # Per bank write bursts
system.mem_ctrls.perBankWrBursts::12                0                       # Per bank write bursts
system.mem_ctrls.perBankWrBursts::13                0                       # Per bank write bursts
system.mem_ctrls.perBankWrBursts::14                0                       # Per bank write bursts
system.mem_ctrls.perBankWrBursts::15                0                       # Per bank write bursts
system.mem_ctrls.numRdRetry                         0                       # Number of times read queue was full causing retry
system.mem_ctrls.numWrRetry                         0                       # Number of times write queue was full causing retry
system.mem_ctrls.totGap                             0                       # Total gap between requests
system.mem_ctrls.readPktSize::0                     0                       # Read request sizes (log2)
system.mem_ctrls.readPktSize::1                     0                       # Read request sizes (log2)
system.mem_ctrls.readPktSize::2                     0                       # Read request sizes (log2)
system.mem_ctrls.readPktSize::3                     0                       # Read request sizes (log2)
system.mem_ctrls.readPktSize::4                     0                       # Read request sizes (log2)
system.mem_ctrls.readPktSize::5                     0                       # Read request sizes (log2)
system.mem_ctrls.readPktSize::6                     0                       # Read request sizes (log2)
system.mem_ctrls.writePktSize::0                    0                       # Write request sizes (log2)
system.mem_ctrls.writePktSize::1                    0                       # Write request sizes (log2)
system.mem_ctrls.writePktSize::2                    0                       # Write request sizes (log2)
system.mem_ctrls.writePktSize::3                    0                       # Write request sizes (log2)
system.mem_ctrls.writePktSize::4                    0                       # Write request sizes (log2)
system.mem_ctrls.writePktSize::5                    0                       # Write request sizes (log2)
system.mem_ctrls.writePktSize::6                    0                       # Write request sizes (log2)
system.mem_ctrls.rdQLenPdf::0                       0                       # What read queue length does an incoming req see
system.mem_ctrls.rdQLenPdf::1                       0                       # What read queue length does an incoming req see
system.mem_ctrls.rdQLenPdf::2                       0                       # What read queue length does an incoming req see
system.mem_ctrls.rdQLenPdf::3                       0                       # What read queue length does an incoming req see
system.mem_ctrls.rdQLenPdf::4                       0                       # What read queue length does an incoming req see
system.mem_ctrls.rdQLenPdf::5                       0                       # What read queue length does an incoming req see
system.mem_ctrls.rdQLenPdf::6                       0                       # What read queue length does an incoming req see
system.mem_ctrls.rdQLenPdf::7                       0                       # What read queue length does an incoming req see
system.mem_ctrls.rdQLenPdf::8                       0                       # What read queue length does an incoming req see
system.mem_ctrls.rdQLenPdf::9                       0                       # What read queue length does an incoming req see
system.mem_ctrls.rdQLenPdf::10                      0                       # What read queue length does an incoming req see
system.mem_ctrls.rdQLenPdf::11                      0                       # What read queue length does an incoming req see
system.mem_ctrls.rdQLenPdf::12                      0                       # What read queue length does an incoming req see
system.mem_ctrls.rdQLenPdf::13                      0                       # What read queue length does an incoming req see
system.mem_ctrls.rdQLenPdf::14                      0                       # What read queue length does an incoming req see
system.mem_ctrls.rdQLenPdf::15                      0                       # What read queue length does an incoming req see
system.mem_ctrls.rdQLenPdf::16                      0                       # What read queue length does an incoming req see
system.mem_ctrls.rdQLenPdf::17                      0                       # What read queue length does an incoming req see
system.mem_ctrls.rdQLenPdf::18                      0                       # What read queue length does an incoming req see
system.mem_ctrls.rdQLenPdf::19                      0                       # What read queue length does an incoming req see
system.mem_ctrls.rdQLenPdf::20                      0                       # What read queue length does an incoming req see
system.mem_ctrls.rdQLenPdf::21                      0                       # What read queue length does an incoming req see
system.mem_ctrls.rdQLenPdf::22                      0                       # What read queue length does an incoming req see
system.mem_ctrls.rdQLenPdf::23                      0                       # What read queue length does an incoming req see
system.mem_ctrls.rdQLenPdf::24                      0                       # What read queue length does an incoming req see
system.mem_ctrls.rdQLenPdf::25                      0                       # What read queue length does an incoming req see
system.mem_ctrls.rdQLenPdf::26                      0                       # What read queue length does an incoming req see
system.mem_ctrls.rdQLenPdf::27                      0                       # What read queue length does an incoming req see
system.mem_ctrls.rdQLenPdf::28                      0                       # What read queue length does an incoming req see
system.mem_ctrls.rdQLenPdf::29                      0                       # What read queue length does an incoming req see
system.mem_ctrls.rdQLenPdf::30                      0                       # What read queue length does an incoming req see
system.mem_ctrls.rdQLenPdf::31                      0                       # What read queue length does an incoming req see
system.mem_ctrls.wrQLenPdf::0                       0                       # What write queue length does an incoming req see
system.mem_ctrls.wrQLenPdf::1                       0                       # What write queue length does an incoming req see
system.mem_ctrls.wrQLenPdf::2                       0                       # What write queue length does an incoming req see
system.mem_ctrls.wrQLenPdf::3                       0                       # What write queue length does an incoming req see
system.mem_ctrls.wrQLenPdf::4                       0                       # What write queue length does an incoming req see
system.mem_ctrls.wrQLenPdf::5                       0                       # What write queue length does an incoming req see
system.mem_ctrls.wrQLenPdf::6                       0                       # What write queue length does an incoming req see
system.mem_ctrls.wrQLenPdf::7                       0                       # What write queue length does an incoming req see
system.mem_ctrls.wrQLenPdf::8                       0                       # What write queue length does an incoming req see
system.mem_ctrls.wrQLenPdf::9                       0                       # What write queue length does an incoming req see
system.mem_ctrls.wrQLenPdf::10                      0                       # What write queue length does an incoming req see
system.mem_ctrls.wrQLenPdf::11                      0                       # What write queue length does an incoming req see
system.mem_ctrls.wrQLenPdf::12                      0                       # What write queue length does an incoming req see
system.mem_ctrls.wrQLenPdf::13                      0                       # What write queue length does an incoming req see
system.mem_ctrls.wrQLenPdf::14                      0                       # What write queue length does an incoming req see
system.mem_ctrls.wrQLenPdf::15                      0                       # What write queue length does an incoming req see
system.mem_ctrls.wrQLenPdf::16                      0                       # What write queue length does an incoming req see
system.mem_ctrls.wrQLenPdf::17                      0                       # What write queue length does an incoming req see
system.mem_ctrls.wrQLenPdf::18                      0                       # What write queue length does an incoming req see
system.mem_ctrls.wrQLenPdf::19                      0                       # What write queue length does an incoming req see
system.mem_ctrls.wrQLenPdf::20                      0                       # What write queue length does an incoming req see
system.mem_ctrls.wrQLenPdf::21                      0                       # What write queue length does an incoming req see
system.mem_ctrls.wrQLenPdf::22                      0                       # What write queue length does an incoming req see
system.mem_ctrls.wrQLenPdf::23                      0                       # What write queue length does an incoming req see
system.mem_ctrls.wrQLenPdf::24                      0                       # What write queue length does an incoming req see
system.mem_ctrls.wrQLenPdf::25                      0                       # What write queue length does an incoming req see
system.mem_ctrls.wrQLenPdf::26                      0                       # What write queue length does an incoming req see
system.mem_ctrls.wrQLenPdf::27                      0                       # What write queue length does an incoming req see
system.mem_ctrls.wrQLenPdf::28                      0                       # What write queue length does an incoming req see
system.mem_ctrls.wrQLenPdf::29                      0                       # What write queue length does an incoming req see
system.mem_ctrls.wrQLenPdf::30                      0                       # What write queue length does an incoming req see
system.mem_ctrls.wrQLenPdf::31                      0                       # What write queue length does an incoming req see
system.mem_ctrls.wrQLenPdf::32                      0                       # What write queue length does an incoming req see
system.mem_ctrls.wrQLenPdf::33                      0                       # What write queue length does an incoming req see
system.mem_ctrls.wrQLenPdf::34                      0                       # What write queue length does an incoming req see
system.mem_ctrls.wrQLenPdf::35                      0                       # What write queue length does an incoming req see
system.mem_ctrls.wrQLenPdf::36                      0                       # What write queue length does an incoming req see
system.mem_ctrls.wrQLenPdf::37                      0                       # What write queue length does an incoming req see
system.mem_ctrls.wrQLenPdf::38                      0                       # What write queue length does an incoming req see
system.mem_ctrls.wrQLenPdf::39                      0                       # What write queue length does an incoming req see
system.mem_ctrls.wrQLenPdf::40                      0                       # What write queue length does an incoming req see
system.mem_ctrls.wrQLenPdf::41                      0                       # What write queue length does an incoming req see
system.mem_ctrls.wrQLenPdf::42                      0                       # What write queue length does an incoming req see
system.mem_ctrls.wrQLenPdf::43                      0                       # What write queue length does an incoming req see
system.mem_ctrls.wrQLenPdf::44                      0                       # What write queue length does an incoming req see
system.mem_ctrls.wrQLenPdf::45                      0                       # What write queue length does an incoming req see
system.mem_ctrls.wrQLenPdf::46                      0                       # What write queue length does an incoming req see
system.mem_ctrls.wrQLenPdf::47                      0                       # What write queue length does an incoming req see
system.mem_ctrls.wrQLenPdf::48                      0                       # What write queue length does an incoming req see
system.mem_ctrls.wrQLenPdf::49                      0                       # What write queue length does an incoming req see
system.mem_ctrls.wrQLenPdf::50                      0                       # What write queue length does an incoming req see
system.mem_ctrls.wrQLenPdf::51                      0                       # What write queue length does an incoming req see
system.mem_ctrls.wrQLenPdf::52                      0                       # What write queue length does an incoming req see
system.mem_ctrls.wrQLenPdf::53                      0                       # What write queue length does an incoming req see
system.mem_ctrls.wrQLenPdf::54                      0                       # What write queue length does an incoming req see
system.mem_ctrls.wrQLenPdf::55                      0                       # What write queue length does an incoming req see
system.mem_ctrls.wrQLenPdf::56                      0                       # What write queue length does an incoming req see
system.mem_ctrls.wrQLenPdf::57                      0                       # What write queue length does an incoming req see
system.mem_ctrls.wrQLenPdf::58                      0                       # What write queue length does an incoming req see
system.mem_ctrls.wrQLenPdf::59                      0                       # What write queue length does an incoming req see
system.mem_ctrls.wrQLenPdf::60                      0                       # What write queue length does an incoming req see
system.mem_ctrls.wrQLenPdf::61                      0                       # What write queue length does an incoming req see
system.mem_ctrls.wrQLenPdf::62                      0                       # What write queue length does an incoming req see
system.mem_ctrls.wrQLenPdf::63                      0                       # What write queue length does an incoming req see
system.mem_ctrls.totQLat                            0                       # Total ticks spent queuing
system.mem_ctrls.totMemAccLat                       0                       # Total ticks spent from burst creation until serviced by the DRAM
system.mem_ctrls.totBusLat                          0                       # Total ticks spent in databus transfers
system.mem_ctrls.avgQLat                          nan                       # Average queueing delay per DRAM burst
system.mem_ctrls.avgBusLat                        nan                       # Average bus latency per DRAM burst
system.mem_ctrls.avgMemAccLat                     nan                       # Average memory access latency per DRAM burst
system.mem_ctrls.avgRdBW                         0.00                       # Average DRAM read bandwidth in MiByte/s
system.mem_ctrls.avgWrBW                         0.00                       # Average achieved write bandwidth in MiByte/s
system.mem_ctrls.avgRdBWSys                      0.00                       # Average system read bandwidth in MiByte/s
system.mem_ctrls.avgWrBWSys                      0.00                       # Average system write bandwidth in MiByte/s
system.mem_ctrls.peakBW                      12800.00                       # Theoretical peak bandwidth in MiByte/s
system.mem_ctrls.busUtil                         0.00                       # Data bus utilization in percentage
system.mem_ctrls.busUtilRead                     0.00                       # Data bus utilization in percentage for reads
system.mem_ctrls.busUtilWrite                    0.00                       # Data bus utilization in percentage for writes
system.mem_ctrls.avgRdQLen                       0.00                       # Average read queue length when enqueuing
system.mem_ctrls.avgWrQLen                       0.00                       # Average write queue length when enqueuing
system.mem_ctrls.readRowHits                        0                       # Number of row buffer hits during reads
system.mem_ctrls.writeRowHits                       0                       # Number of row buffer hits during writes
system.mem_ctrls.readRowHitRate                   nan                       # Row buffer hit rate for reads
system.mem_ctrls.writeRowHitRate                  nan                       # Row buffer hit rate for writes
system.mem_ctrls.avgGap                           nan                       # Average gap between requests
system.mem_ctrls.pageHitRate                      nan                       # Row buffer hit rate, read and write combined
system.mem_ctrls.memoryStateTime::IDLE   2969775721250                       # Time in different power states
system.mem_ctrls.memoryStateTime::REF    102593140000                       # Time in different power states
system.mem_ctrls.memoryStateTime::PRE_PDN            0                       # Time in different power states
system.mem_ctrls.memoryStateTime::ACT               0                       # Time in different power states
system.mem_ctrls.memoryStateTime::ACT_PDN            0                       # Time in different power states
system.mem_ctrls.actEnergy::0                       0                       # Energy for activate commands per rank (pJ)
system.mem_ctrls.actEnergy::1                       0                       # Energy for activate commands per rank (pJ)
system.mem_ctrls.preEnergy::0                       0                       # Energy for precharge commands per rank (pJ)
system.mem_ctrls.preEnergy::1                       0                       # Energy for precharge commands per rank (pJ)
system.mem_ctrls.readEnergy::0                      0                       # Energy for read commands per rank (pJ)
system.mem_ctrls.readEnergy::1                      0                       # Energy for read commands per rank (pJ)
system.mem_ctrls.writeEnergy::0                     0                       # Energy for write commands per rank (pJ)
system.mem_ctrls.writeEnergy::1                     0                       # Energy for write commands per rank (pJ)
system.mem_ctrls.refreshEnergy::0        200672181840                       # Energy for refresh commands per rank (pJ)
system.mem_ctrls.refreshEnergy::1        200672181840                       # Energy for refresh commands per rank (pJ)
system.mem_ctrls.actBackEnergy::0         66462598215                       # Energy for active background per rank (pJ)
system.mem_ctrls.actBackEnergy::1         66462598215                       # Energy for active background per rank (pJ)
system.mem_ctrls.preBackEnergy::0        1785120783750                       # Energy for precharge background per rank (pJ)
system.mem_ctrls.preBackEnergy::1        1785120783750                       # Energy for precharge background per rank (pJ)
system.mem_ctrls.totalEnergy::0          2052255563805                       # Total energy per rank (pJ)
system.mem_ctrls.totalEnergy::1          2052255563805                       # Total energy per rank (pJ)
system.mem_ctrls.averagePower::0           667.971740                       # Core power per rank (mW)
system.mem_ctrls.averagePower::1           667.971740                       # Core power per rank (mW)
system.membus.trans_dist::ReadReq             4135075                       # Transaction distribution
system.membus.trans_dist::ReadResp            4135075                       # Transaction distribution
system.membus.trans_dist::WriteReq              27088                       # Transaction distribution
system.membus.trans_dist::WriteResp             27088                       # Transaction distribution
system.membus.trans_dist::Writeback            459001                       # Transaction distribution
system.membus.trans_dist::WriteInvalidateReq        44256                       # Transaction distribution
system.membus.trans_dist::WriteInvalidateResp        44256                       # Transaction distribution
system.membus.trans_dist::UpgradeReq            90587                       # Transaction distribution
system.membus.trans_dist::SCUpgradeReq          57166                       # Transaction distribution
system.membus.trans_dist::UpgradeResp          147753                       # Transaction distribution
system.membus.trans_dist::ReadExReq            370405                       # Transaction distribution
system.membus.trans_dist::ReadExResp           370405                       # Transaction distribution
system.membus.pkt_count_system.iocache.mem_side::system.mem_ctrls.port        88930                       # Packet count per connected master and slave (bytes)
system.membus.pkt_count_system.iocache.mem_side::total        88930                       # Packet count per connected master and slave (bytes)
system.membus.pkt_count_system.cpu0.icache.mem_side::system.mem_ctrls.port      1260448                       # Packet count per connected master and slave (bytes)
system.membus.pkt_count_system.cpu0.icache.mem_side::total      1260448                       # Packet count per connected master and slave (bytes)
system.membus.pkt_count_system.cpu0.dcache.mem_side::system.bridge.slave        31740                       # Packet count per connected master and slave (bytes)
system.membus.pkt_count_system.cpu0.dcache.mem_side::system.mem_ctrls.port      5298940                       # Packet count per connected master and slave (bytes)
system.membus.pkt_count_system.cpu0.dcache.mem_side::total      5330680                       # Packet count per connected master and slave (bytes)
system.membus.pkt_count_system.cpu1.icache.mem_side::system.mem_ctrls.port        98614                       # Packet count per connected master and slave (bytes)
system.membus.pkt_count_system.cpu1.icache.mem_side::total        98614                       # Packet count per connected master and slave (bytes)
system.membus.pkt_count_system.cpu1.dcache.mem_side::system.bridge.slave         6804                       # Packet count per connected master and slave (bytes)
system.membus.pkt_count_system.cpu1.dcache.mem_side::system.mem_ctrls.port       106000                       # Packet count per connected master and slave (bytes)
system.membus.pkt_count_system.cpu1.dcache.mem_side::total       112804                       # Packet count per connected master and slave (bytes)
system.membus.pkt_count_system.cpu2.icache.mem_side::system.mem_ctrls.port       949804                       # Packet count per connected master and slave (bytes)
system.membus.pkt_count_system.cpu2.icache.mem_side::total       949804                       # Packet count per connected master and slave (bytes)
system.membus.pkt_count_system.cpu2.dcache.mem_side::system.bridge.slave        20750                       # Packet count per connected master and slave (bytes)
system.membus.pkt_count_system.cpu2.dcache.mem_side::system.mem_ctrls.port       805363                       # Packet count per connected master and slave (bytes)
system.membus.pkt_count_system.cpu2.dcache.mem_side::total       826113                       # Packet count per connected master and slave (bytes)
system.membus.pkt_count_system.cpu3.icache.mem_side::system.mem_ctrls.port       715896                       # Packet count per connected master and slave (bytes)
system.membus.pkt_count_system.cpu3.icache.mem_side::total       715896                       # Packet count per connected master and slave (bytes)
system.membus.pkt_count_system.cpu3.dcache.mem_side::system.bridge.slave         9482                       # Packet count per connected master and slave (bytes)
system.membus.pkt_count_system.cpu3.dcache.mem_side::system.mem_ctrls.port       515384                       # Packet count per connected master and slave (bytes)
system.membus.pkt_count_system.cpu3.dcache.mem_side::total       524866                       # Packet count per connected master and slave (bytes)
system.membus.pkt_count::total                9908155                       # Packet count per connected master and slave (bytes)
system.membus.pkt_size_system.iocache.mem_side::system.mem_ctrls.port      2845760                       # Cumulative packet size per connected master and slave (bytes)
system.membus.pkt_size_system.iocache.mem_side::total      2845760                       # Cumulative packet size per connected master and slave (bytes)
system.membus.pkt_size_system.cpu0.icache.mem_side::system.mem_ctrls.port     40334336                       # Cumulative packet size per connected master and slave (bytes)
system.membus.pkt_size_system.cpu0.icache.mem_side::total     40334336                       # Cumulative packet size per connected master and slave (bytes)
system.membus.pkt_size_system.cpu0.dcache.mem_side::system.bridge.slave        59382                       # Cumulative packet size per connected master and slave (bytes)
system.membus.pkt_size_system.cpu0.dcache.mem_side::system.mem_ctrls.port    176281984                       # Cumulative packet size per connected master and slave (bytes)
system.membus.pkt_size_system.cpu0.dcache.mem_side::total    176341366                       # Cumulative packet size per connected master and slave (bytes)
system.membus.pkt_size_system.cpu1.icache.mem_side::system.mem_ctrls.port      3155648                       # Cumulative packet size per connected master and slave (bytes)
system.membus.pkt_size_system.cpu1.icache.mem_side::total      3155648                       # Cumulative packet size per connected master and slave (bytes)
system.membus.pkt_size_system.cpu1.dcache.mem_side::system.bridge.slave        27195                       # Cumulative packet size per connected master and slave (bytes)
system.membus.pkt_size_system.cpu1.dcache.mem_side::system.mem_ctrls.port      3309632                       # Cumulative packet size per connected master and slave (bytes)
system.membus.pkt_size_system.cpu1.dcache.mem_side::total      3336827                       # Cumulative packet size per connected master and slave (bytes)
system.membus.pkt_size_system.cpu2.icache.mem_side::system.mem_ctrls.port     30393728                       # Cumulative packet size per connected master and slave (bytes)
system.membus.pkt_size_system.cpu2.icache.mem_side::total     30393728                       # Cumulative packet size per connected master and slave (bytes)
system.membus.pkt_size_system.cpu2.dcache.mem_side::system.bridge.slave        57092                       # Cumulative packet size per connected master and slave (bytes)
system.membus.pkt_size_system.cpu2.dcache.mem_side::system.mem_ctrls.port     25248128                       # Cumulative packet size per connected master and slave (bytes)
system.membus.pkt_size_system.cpu2.dcache.mem_side::total     25305220                       # Cumulative packet size per connected master and slave (bytes)
system.membus.pkt_size_system.cpu3.icache.mem_side::system.mem_ctrls.port     22908672                       # Cumulative packet size per connected master and slave (bytes)
system.membus.pkt_size_system.cpu3.icache.mem_side::total     22908672                       # Cumulative packet size per connected master and slave (bytes)
system.membus.pkt_size_system.cpu3.dcache.mem_side::system.bridge.slave        37356                       # Cumulative packet size per connected master and slave (bytes)
system.membus.pkt_size_system.cpu3.dcache.mem_side::system.mem_ctrls.port     15614080                       # Cumulative packet size per connected master and slave (bytes)
system.membus.pkt_size_system.cpu3.dcache.mem_side::total     15651436                       # Cumulative packet size per connected master and slave (bytes)
system.membus.pkt_size::total               320272993                       # Cumulative packet size per connected master and slave (bytes)
system.membus.snoops                                0                       # Total snoops (count)
system.membus.snoop_fanout::samples           5149190                       # Request fanout histogram
system.membus.snoop_fanout::mean                    8                       # Request fanout histogram
system.membus.snoop_fanout::stdev                   0                       # Request fanout histogram
system.membus.snoop_fanout::underflows              0      0.00%      0.00% # Request fanout histogram
system.membus.snoop_fanout::0                       0      0.00%      0.00% # Request fanout histogram
system.membus.snoop_fanout::1                       0      0.00%      0.00% # Request fanout histogram
system.membus.snoop_fanout::2                       0      0.00%      0.00% # Request fanout histogram
system.membus.snoop_fanout::3                       0      0.00%      0.00% # Request fanout histogram
system.membus.snoop_fanout::4                       0      0.00%      0.00% # Request fanout histogram
system.membus.snoop_fanout::5                       0      0.00%      0.00% # Request fanout histogram
system.membus.snoop_fanout::6                       0      0.00%      0.00% # Request fanout histogram
system.membus.snoop_fanout::7                       0      0.00%      0.00% # Request fanout histogram
system.membus.snoop_fanout::8                 5149190    100.00%    100.00% # Request fanout histogram
system.membus.snoop_fanout::9                       0      0.00%    100.00% # Request fanout histogram
system.membus.snoop_fanout::overflows               0      0.00%    100.00% # Request fanout histogram
system.membus.snoop_fanout::min_value               8                       # Request fanout histogram
system.membus.snoop_fanout::max_value               8                       # Request fanout histogram
system.membus.snoop_fanout::total             5149190                       # Request fanout histogram
system.iocache.tags.replacements                44449                       # number of replacements
system.iocache.tags.tagsinuse                0.787955                       # Cycle average of tags in use
system.iocache.tags.total_refs                      0                       # Total number of references to valid blocks.
system.iocache.tags.sampled_refs                44449                       # Sample count of references to valid blocks.
system.iocache.tags.avg_refs                        0                       # Average number of references to valid blocks.
system.iocache.tags.warmup_cycle         2921068572017                       # Cycle when the warmup percentage was hit.
system.iocache.tags.occ_blocks::tsunami.ide     0.787955                       # Average occupied blocks per requestor
system.iocache.tags.occ_percent::tsunami.ide     0.049247                       # Average percentage of cache occupancy
system.iocache.tags.occ_percent::total       0.049247                       # Average percentage of cache occupancy
system.iocache.tags.occ_task_id_blocks::1023           16                       # Occupied blocks per task id
system.iocache.tags.age_task_id_blocks_1023::4           16                       # Occupied blocks per task id
system.iocache.tags.occ_task_id_percent::1023            1                       # Percentage of cache occupancy per task id
system.iocache.tags.tag_accesses               400185                       # Number of tag accesses
system.iocache.tags.data_accesses              400185                       # Number of data accesses
system.iocache.WriteInvalidateReq_hits::tsunami.ide        44256                       # number of WriteInvalidateReq hits
system.iocache.WriteInvalidateReq_hits::total        44256                       # number of WriteInvalidateReq hits
system.iocache.ReadReq_misses::tsunami.ide          209                       # number of ReadReq misses
system.iocache.ReadReq_misses::total              209                       # number of ReadReq misses
system.iocache.demand_misses::tsunami.ide          209                       # number of demand (read+write) misses
system.iocache.demand_misses::total               209                       # number of demand (read+write) misses
system.iocache.overall_misses::tsunami.ide          209                       # number of overall misses
system.iocache.overall_misses::total              209                       # number of overall misses
system.iocache.ReadReq_accesses::tsunami.ide          209                       # number of ReadReq accesses(hits+misses)
system.iocache.ReadReq_accesses::total            209                       # number of ReadReq accesses(hits+misses)
system.iocache.WriteInvalidateReq_accesses::tsunami.ide        44256                       # number of WriteInvalidateReq accesses(hits+misses)
system.iocache.WriteInvalidateReq_accesses::total        44256                       # number of WriteInvalidateReq accesses(hits+misses)
system.iocache.demand_accesses::tsunami.ide          209                       # number of demand (read+write) accesses
system.iocache.demand_accesses::total             209                       # number of demand (read+write) accesses
system.iocache.overall_accesses::tsunami.ide          209                       # number of overall (read+write) accesses
system.iocache.overall_accesses::total            209                       # number of overall (read+write) accesses
system.iocache.ReadReq_miss_rate::tsunami.ide            1                       # miss rate for ReadReq accesses
system.iocache.ReadReq_miss_rate::total             1                       # miss rate for ReadReq accesses
system.iocache.demand_miss_rate::tsunami.ide            1                       # miss rate for demand accesses
system.iocache.demand_miss_rate::total              1                       # miss rate for demand accesses
system.iocache.overall_miss_rate::tsunami.ide            1                       # miss rate for overall accesses
system.iocache.overall_miss_rate::total             1                       # miss rate for overall accesses
system.iocache.blocked_cycles::no_mshrs             0                       # number of cycles access was blocked
system.iocache.blocked_cycles::no_targets            0                       # number of cycles access was blocked
system.iocache.blocked::no_mshrs                    0                       # number of cycles access was blocked
system.iocache.blocked::no_targets                  0                       # number of cycles access was blocked
system.iocache.avg_blocked_cycles::no_mshrs          nan                       # average number of cycles each access was blocked
system.iocache.avg_blocked_cycles::no_targets          nan                       # average number of cycles each access was blocked
system.iocache.fast_writes                      44256                       # number of fast writes performed
system.iocache.cache_copies                         0                       # number of cache copies performed
system.iocache.no_allocate_misses                   0                       # Number of misses that were no-allocate
system.disk0.dma_read_full_pages                    0                       # Number of full page size DMA reads (not PRD).
system.disk0.dma_read_bytes                      4096                       # Number of bytes transfered via DMA reads (not PRD).
system.disk0.dma_read_txs                           1                       # Number of DMA read transactions (not PRD).
system.disk0.dma_write_full_pages                 326                       # Number of full page size DMA writes.
system.disk0.dma_write_bytes                  2824192                       # Number of bytes transfered via DMA writes.
system.disk0.dma_write_txs                        365                       # Number of DMA write transactions.
system.disk2.dma_read_full_pages                    0                       # Number of full page size DMA reads (not PRD).
system.disk2.dma_read_bytes                         0                       # Number of bytes transfered via DMA reads (not PRD).
system.disk2.dma_read_txs                           0                       # Number of DMA read transactions (not PRD).
system.disk2.dma_write_full_pages                   1                       # Number of full page size DMA writes.
system.disk2.dma_write_bytes                     8192                       # Number of bytes transfered via DMA writes.
system.disk2.dma_write_txs                          1                       # Number of DMA write transactions.
system.cpu_voltage_domain.voltage                   1                       # Voltage in Volts
system.cpu_clk_domain.clock                     10000                       # Clock period in ticks
system.cpu0.dtb.fetch_hits                          0                       # ITB hits
system.cpu0.dtb.fetch_misses                        0                       # ITB misses
system.cpu0.dtb.fetch_acv                           0                       # ITB acv
system.cpu0.dtb.fetch_accesses                      0                       # ITB accesses
system.cpu0.dtb.read_hits                    11490257                       # DTB read hits
system.cpu0.dtb.read_misses                      3232                       # DTB read misses
system.cpu0.dtb.read_acv                           14                       # DTB read access violations
system.cpu0.dtb.read_accesses                  212562                       # DTB read accesses
system.cpu0.dtb.write_hits                    4932081                       # DTB write hits
system.cpu0.dtb.write_misses                      296                       # DTB write misses
system.cpu0.dtb.write_acv                          37                       # DTB write access violations
system.cpu0.dtb.write_accesses                  92693                       # DTB write accesses
system.cpu0.dtb.data_hits                    16422338                       # DTB hits
system.cpu0.dtb.data_misses                      3528                       # DTB misses
system.cpu0.dtb.data_acv                           51                       # DTB access violations
system.cpu0.dtb.data_accesses                  305255                       # DTB accesses
system.cpu0.itb.fetch_hits                    2491849                       # ITB hits
system.cpu0.itb.fetch_misses                     1367                       # ITB misses
system.cpu0.itb.fetch_acv                           1                       # ITB acv
system.cpu0.itb.fetch_accesses                2493216                       # ITB accesses
system.cpu0.itb.read_hits                           0                       # DTB read hits
system.cpu0.itb.read_misses                         0                       # DTB read misses
system.cpu0.itb.read_acv                            0                       # DTB read access violations
system.cpu0.itb.read_accesses                       0                       # DTB read accesses
system.cpu0.itb.write_hits                          0                       # DTB write hits
system.cpu0.itb.write_misses                        0                       # DTB write misses
system.cpu0.itb.write_acv                           0                       # DTB write access violations
system.cpu0.itb.write_accesses                      0                       # DTB write accesses
system.cpu0.itb.data_hits                           0                       # DTB hits
system.cpu0.itb.data_misses                         0                       # DTB misses
system.cpu0.itb.data_acv                            0                       # DTB access violations
system.cpu0.itb.data_accesses                       0                       # DTB accesses
system.cpu0.numCycles                       307235471                       # number of cpu cycles simulated
system.cpu0.numWorkItemsStarted                     0                       # number of work items this cpu started
system.cpu0.numWorkItemsCompleted                   0                       # number of work items this cpu completed
system.cpu0.committedInsts                   67432964                       # Number of instructions committed
system.cpu0.committedOps                     67432964                       # Number of ops (including micro ops) committed
system.cpu0.num_int_alu_accesses             65187149                       # Number of integer alu accesses
system.cpu0.num_fp_alu_accesses                194613                       # Number of float alu accesses
system.cpu0.num_func_calls                    2120168                       # number of times a function call or return occured
system.cpu0.num_conditional_control_insts      9049838                       # number of instructions that are conditional controls
system.cpu0.num_int_insts                    65187149                       # number of integer instructions
system.cpu0.num_fp_insts                       194613                       # number of float instructions
system.cpu0.num_int_register_reads           89282991                       # number of times the integer registers were read
system.cpu0.num_int_register_writes          50303188                       # number of times the integer registers were written
system.cpu0.num_fp_register_reads               76784                       # number of times the floating registers were read
system.cpu0.num_fp_register_writes              78143                       # number of times the floating registers were written
system.cpu0.num_mem_refs                     16448727                       # number of memory refs
system.cpu0.num_load_insts                   11505343                       # Number of load instructions
system.cpu0.num_store_insts                   4943384                       # Number of store instructions
system.cpu0.num_idle_cycles              239804185.528613                       # Number of idle cycles
system.cpu0.num_busy_cycles              67431285.471387                       # Number of busy cycles
system.cpu0.not_idle_fraction                0.219478                       # Percentage of non-idle cycles
system.cpu0.idle_fraction                    0.780522                       # Percentage of idle cycles
system.cpu0.Branches                         11592264                       # Number of branches fetched
system.cpu0.op_class::No_OpClass              1392143      2.06%      2.06% # Class of executed instruction
system.cpu0.op_class::IntAlu                 48526947     71.96%     74.02% # Class of executed instruction
system.cpu0.op_class::IntMult                  121299      0.18%     74.20% # Class of executed instruction
system.cpu0.op_class::IntDiv                        0      0.00%     74.20% # Class of executed instruction
system.cpu0.op_class::FloatAdd                  61551      0.09%     74.29% # Class of executed instruction
system.cpu0.op_class::FloatCmp                      0      0.00%     74.29% # Class of executed instruction
system.cpu0.op_class::FloatCvt                      0      0.00%     74.29% # Class of executed instruction
system.cpu0.op_class::FloatMult                     0      0.00%     74.29% # Class of executed instruction
system.cpu0.op_class::FloatDiv                   1841      0.00%     74.30% # Class of executed instruction
system.cpu0.op_class::FloatSqrt                     0      0.00%     74.30% # Class of executed instruction
system.cpu0.op_class::SimdAdd                       0      0.00%     74.30% # Class of executed instruction
system.cpu0.op_class::SimdAddAcc                    0      0.00%     74.30% # Class of executed instruction
system.cpu0.op_class::SimdAlu                       0      0.00%     74.30% # Class of executed instruction
system.cpu0.op_class::SimdCmp                       0      0.00%     74.30% # Class of executed instruction
system.cpu0.op_class::SimdCvt                       0      0.00%     74.30% # Class of executed instruction
system.cpu0.op_class::SimdMisc                      0      0.00%     74.30% # Class of executed instruction
system.cpu0.op_class::SimdMult                      0      0.00%     74.30% # Class of executed instruction
system.cpu0.op_class::SimdMultAcc                   0      0.00%     74.30% # Class of executed instruction
system.cpu0.op_class::SimdShift                     0      0.00%     74.30% # Class of executed instruction
system.cpu0.op_class::SimdShiftAcc                  0      0.00%     74.30% # Class of executed instruction
system.cpu0.op_class::SimdSqrt                      0      0.00%     74.30% # Class of executed instruction
system.cpu0.op_class::SimdFloatAdd                  0      0.00%     74.30% # Class of executed instruction
system.cpu0.op_class::SimdFloatAlu                  0      0.00%     74.30% # Class of executed instruction
system.cpu0.op_class::SimdFloatCmp                  0      0.00%     74.30% # Class of executed instruction
system.cpu0.op_class::SimdFloatCvt                  0      0.00%     74.30% # Class of executed instruction
system.cpu0.op_class::SimdFloatDiv                  0      0.00%     74.30% # Class of executed instruction
system.cpu0.op_class::SimdFloatMisc                 0      0.00%     74.30% # Class of executed instruction
system.cpu0.op_class::SimdFloatMult                 0      0.00%     74.30% # Class of executed instruction
system.cpu0.op_class::SimdFloatMultAcc              0      0.00%     74.30% # Class of executed instruction
system.cpu0.op_class::SimdFloatSqrt                 0      0.00%     74.30% # Class of executed instruction
system.cpu0.op_class::MemRead                11755477     17.43%     91.73% # Class of executed instruction
system.cpu0.op_class::MemWrite                4961065      7.36%     99.09% # Class of executed instruction
system.cpu0.op_class::IprAccess                616220      0.91%    100.00% # Class of executed instruction
system.cpu0.op_class::InstPrefetch                  0      0.00%    100.00% # Class of executed instruction
system.cpu0.op_class::total                  67436543                       # Class of executed instruction
system.cpu0.kern.inst.arm                           0                       # number of arm instructions executed
system.cpu0.kern.inst.quiesce                    7137                       # number of quiesce instructions executed
system.cpu0.kern.inst.hwrei                    143091                       # number of hwrei instructions executed
system.cpu0.kern.ipl_count::0                   47265     36.77%     36.77% # number of times we switched to this ipl
system.cpu0.kern.ipl_count::21                     14      0.01%     36.78% # number of times we switched to this ipl
system.cpu0.kern.ipl_count::22                   3031      2.36%     39.13% # number of times we switched to this ipl
system.cpu0.kern.ipl_count::30                    761      0.59%     39.73% # number of times we switched to this ipl
system.cpu0.kern.ipl_count::31                  77486     60.27%    100.00% # number of times we switched to this ipl
system.cpu0.kern.ipl_count::total              128557                       # number of times we switched to this ipl
system.cpu0.kern.ipl_good::0                    47160     48.44%     48.44% # number of times we switched to this ipl from a different ipl
system.cpu0.kern.ipl_good::21                      14      0.01%     48.45% # number of times we switched to this ipl from a different ipl
system.cpu0.kern.ipl_good::22                    3031      3.11%     51.56% # number of times we switched to this ipl from a different ipl
system.cpu0.kern.ipl_good::30                     761      0.78%     52.34% # number of times we switched to this ipl from a different ipl
system.cpu0.kern.ipl_good::31                   46400     47.66%    100.00% # number of times we switched to this ipl from a different ipl
system.cpu0.kern.ipl_good::total                97366                       # number of times we switched to this ipl from a different ipl
system.cpu0.kern.ipl_ticks::0            2836472140000     92.32%     92.32% # number of cycles we spent at this ipl
system.cpu0.kern.ipl_ticks::21               21000000      0.00%     92.33% # number of cycles we spent at this ipl
system.cpu0.kern.ipl_ticks::22             2969710000      0.10%     92.42% # number of cycles we spent at this ipl
system.cpu0.kern.ipl_ticks::30             1725590000      0.06%     92.48% # number of cycles we spent at this ipl
system.cpu0.kern.ipl_ticks::31           231094780000      7.52%    100.00% # number of cycles we spent at this ipl
system.cpu0.kern.ipl_ticks::total        3072283220000                       # number of cycles we spent at this ipl
system.cpu0.kern.ipl_used::0                 0.997778                       # fraction of swpipl calls that actually changed the ipl
system.cpu0.kern.ipl_used::21                       1                       # fraction of swpipl calls that actually changed the ipl
system.cpu0.kern.ipl_used::22                       1                       # fraction of swpipl calls that actually changed the ipl
system.cpu0.kern.ipl_used::30                       1                       # fraction of swpipl calls that actually changed the ipl
system.cpu0.kern.ipl_used::31                0.598818                       # fraction of swpipl calls that actually changed the ipl
system.cpu0.kern.ipl_used::total             0.757376                       # fraction of swpipl calls that actually changed the ipl
system.cpu0.kern.syscall::3                        11     10.58%     10.58% # number of syscalls executed
system.cpu0.kern.syscall::6                        10      9.62%     20.19% # number of syscalls executed
system.cpu0.kern.syscall::15                        1      0.96%     21.15% # number of syscalls executed
system.cpu0.kern.syscall::17                        5      4.81%     25.96% # number of syscalls executed
system.cpu0.kern.syscall::20                        1      0.96%     26.92% # number of syscalls executed
system.cpu0.kern.syscall::23                        3      2.88%     29.81% # number of syscalls executed
system.cpu0.kern.syscall::24                        3      2.88%     32.69% # number of syscalls executed
system.cpu0.kern.syscall::33                        3      2.88%     35.58% # number of syscalls executed
system.cpu0.kern.syscall::45                       19     18.27%     53.85% # number of syscalls executed
system.cpu0.kern.syscall::47                        3      2.88%     56.73% # number of syscalls executed
system.cpu0.kern.syscall::59                        2      1.92%     58.65% # number of syscalls executed
system.cpu0.kern.syscall::71                       28     26.92%     85.58% # number of syscalls executed
system.cpu0.kern.syscall::74                        9      8.65%     94.23% # number of syscalls executed
system.cpu0.kern.syscall::92                        1      0.96%     95.19% # number of syscalls executed
system.cpu0.kern.syscall::97                        1      0.96%     96.15% # number of syscalls executed
system.cpu0.kern.syscall::98                        1      0.96%     97.12% # number of syscalls executed
system.cpu0.kern.syscall::132                       3      2.88%    100.00% # number of syscalls executed
system.cpu0.kern.syscall::total                   104                       # number of syscalls executed
system.cpu0.kern.callpal::cserve                    1      0.00%      0.00% # number of callpals executed
system.cpu0.kern.callpal::wripir                 1012      0.75%      0.75% # number of callpals executed
system.cpu0.kern.callpal::wrmces                    1      0.00%      0.75% # number of callpals executed
system.cpu0.kern.callpal::wrfen                     1      0.00%      0.76% # number of callpals executed
system.cpu0.kern.callpal::wrvptptr                  1      0.00%      0.76% # number of callpals executed
system.cpu0.kern.callpal::swpctx                 2055      1.53%      2.29% # number of callpals executed
system.cpu0.kern.callpal::tbi                      14      0.01%      2.30% # number of callpals executed
system.cpu0.kern.callpal::wrent                     7      0.01%      2.30% # number of callpals executed
system.cpu0.kern.callpal::swpipl               120382     89.61%     91.91% # number of callpals executed
system.cpu0.kern.callpal::rdps                   6304      4.69%     96.61% # number of callpals executed
system.cpu0.kern.callpal::wrkgp                     1      0.00%     96.61% # number of callpals executed
system.cpu0.kern.callpal::wrusp                     3      0.00%     96.61% # number of callpals executed
system.cpu0.kern.callpal::rdusp                     2      0.00%     96.61% # number of callpals executed
system.cpu0.kern.callpal::whami                     2      0.00%     96.61% # number of callpals executed
system.cpu0.kern.callpal::rti                    4369      3.25%     99.86% # number of callpals executed
system.cpu0.kern.callpal::callsys                 135      0.10%     99.97% # number of callpals executed
system.cpu0.kern.callpal::imb                      47      0.03%    100.00% # number of callpals executed
system.cpu0.kern.callpal::total                134337                       # number of callpals executed
system.cpu0.kern.mode_switch::kernel             6341                       # number of protection mode switches
system.cpu0.kern.mode_switch::user                478                       # number of protection mode switches
system.cpu0.kern.mode_switch::idle                  0                       # number of protection mode switches
system.cpu0.kern.mode_good::kernel                478                      
system.cpu0.kern.mode_good::user                  478                      
system.cpu0.kern.mode_good::idle                    0                      
system.cpu0.kern.mode_switch_good::kernel     0.075382                       # fraction of useful protection mode switches
system.cpu0.kern.mode_switch_good::user             1                       # fraction of useful protection mode switches
system.cpu0.kern.mode_switch_good::idle           nan                       # fraction of useful protection mode switches
system.cpu0.kern.mode_switch_good::total     0.140197                       # fraction of useful protection mode switches
system.cpu0.kern.mode_ticks::kernel      3042380800000     99.68%     99.68% # number of ticks spent at the given mode
system.cpu0.kern.mode_ticks::user          9631700000      0.32%    100.00% # number of ticks spent at the given mode
system.cpu0.kern.mode_ticks::idle                   0      0.00%    100.00% # number of ticks spent at the given mode
system.cpu0.kern.swap_context                    2056                       # number of times the context was actually changed
system.tsunami.ethernet.descDMAReads                0                       # Number of descriptors the device read w/ DMA
system.tsunami.ethernet.descDMAWrites               0                       # Number of descriptors the device wrote w/ DMA
system.tsunami.ethernet.descDmaReadBytes            0                       # number of descriptor bytes read w/ DMA
system.tsunami.ethernet.descDmaWriteBytes            0                       # number of descriptor bytes write w/ DMA
system.tsunami.ethernet.postedSwi                   0                       # number of software interrupts posted to CPU
system.tsunami.ethernet.coalescedSwi              nan                       # average number of Swi's coalesced into each post
system.tsunami.ethernet.totalSwi                    0                       # total number of Swi written to ISR
system.tsunami.ethernet.postedRxIdle                0                       # number of rxIdle interrupts posted to CPU
system.tsunami.ethernet.coalescedRxIdle           nan                       # average number of RxIdle's coalesced into each post
system.tsunami.ethernet.totalRxIdle                 0                       # total number of RxIdle written to ISR
system.tsunami.ethernet.postedRxOk                  0                       # number of RxOk interrupts posted to CPU
system.tsunami.ethernet.coalescedRxOk             nan                       # average number of RxOk's coalesced into each post
system.tsunami.ethernet.totalRxOk                   0                       # total number of RxOk written to ISR
system.tsunami.ethernet.postedRxDesc                0                       # number of RxDesc interrupts posted to CPU
system.tsunami.ethernet.coalescedRxDesc           nan                       # average number of RxDesc's coalesced into each post
system.tsunami.ethernet.totalRxDesc                 0                       # total number of RxDesc written to ISR
system.tsunami.ethernet.postedTxOk                  0                       # number of TxOk interrupts posted to CPU
system.tsunami.ethernet.coalescedTxOk             nan                       # average number of TxOk's coalesced into each post
system.tsunami.ethernet.totalTxOk                   0                       # total number of TxOk written to ISR
system.tsunami.ethernet.postedTxIdle                0                       # number of TxIdle interrupts posted to CPU
system.tsunami.ethernet.coalescedTxIdle           nan                       # average number of TxIdle's coalesced into each post
system.tsunami.ethernet.totalTxIdle                 0                       # total number of TxIdle written to ISR
system.tsunami.ethernet.postedTxDesc                0                       # number of TxDesc interrupts posted to CPU
system.tsunami.ethernet.coalescedTxDesc           nan                       # average number of TxDesc's coalesced into each post
system.tsunami.ethernet.totalTxDesc                 0                       # total number of TxDesc written to ISR
system.tsunami.ethernet.postedRxOrn                 0                       # number of RxOrn posted to CPU
system.tsunami.ethernet.coalescedRxOrn            nan                       # average number of RxOrn's coalesced into each post
system.tsunami.ethernet.totalRxOrn                  0                       # total number of RxOrn written to ISR
system.tsunami.ethernet.coalescedTotal            nan                       # average number of interrupts coalesced into each post
system.tsunami.ethernet.postedInterrupts            0                       # number of posts to CPU
system.tsunami.ethernet.droppedPackets              0                       # number of packets dropped
system.iobus.trans_dist::ReadReq                 7509                       # Transaction distribution
system.iobus.trans_dist::ReadResp                7509                       # Transaction distribution
system.iobus.trans_dist::WriteReq               71344                       # Transaction distribution
system.iobus.trans_dist::WriteResp              27088                       # Transaction distribution
system.iobus.trans_dist::WriteInvalidateResp        44256                       # Transaction distribution
system.iobus.pkt_count_system.bridge.master::system.tsunami.cchip.pio        37478                       # Packet count per connected master and slave (bytes)
system.iobus.pkt_count_system.bridge.master::system.tsunami.pchip.pio          296                       # Packet count per connected master and slave (bytes)
system.iobus.pkt_count_system.bridge.master::system.tsunami.fake_sm_chip.pio           20                       # Packet count per connected master and slave (bytes)
system.iobus.pkt_count_system.bridge.master::system.tsunami.fake_uart4.pio           20                       # Packet count per connected master and slave (bytes)
system.iobus.pkt_count_system.bridge.master::system.tsunami.fake_ata0.pio           22                       # Packet count per connected master and slave (bytes)
system.iobus.pkt_count_system.bridge.master::system.tsunami.fake_ata1.pio           22                       # Packet count per connected master and slave (bytes)
system.iobus.pkt_count_system.bridge.master::system.tsunami.io.pio          208                       # Packet count per connected master and slave (bytes)
system.iobus.pkt_count_system.bridge.master::system.tsunami.uart.pio        20496                       # Packet count per connected master and slave (bytes)
system.iobus.pkt_count_system.bridge.master::system.tsunami.backdoor.pio         3670                       # Packet count per connected master and slave (bytes)
system.iobus.pkt_count_system.bridge.master::system.tsunami.ide.pio         5904                       # Packet count per connected master and slave (bytes)
system.iobus.pkt_count_system.bridge.master::system.tsunami.ide-pciconf          284                       # Packet count per connected master and slave (bytes)
system.iobus.pkt_count_system.bridge.master::system.tsunami.ethernet.pio          100                       # Packet count per connected master and slave (bytes)
system.iobus.pkt_count_system.bridge.master::system.tsunami.ethernet-pciconf          196                       # Packet count per connected master and slave (bytes)
system.iobus.pkt_count_system.bridge.master::system.tsunami.pciconfig.pio           60                       # Packet count per connected master and slave (bytes)
system.iobus.pkt_count_system.bridge.master::total        68776                       # Packet count per connected master and slave (bytes)
system.iobus.pkt_count_system.tsunami.ide.dma::system.iocache.cpu_side        88930                       # Packet count per connected master and slave (bytes)
system.iobus.pkt_count_system.tsunami.ide.dma::total        88930                       # Packet count per connected master and slave (bytes)
system.iobus.pkt_count::total                  157706                       # Packet count per connected master and slave (bytes)
system.iobus.pkt_size_system.bridge.master::system.tsunami.cchip.pio       149912                       # Cumulative packet size per connected master and slave (bytes)
system.iobus.pkt_size_system.bridge.master::system.tsunami.pchip.pio         1184                       # Cumulative packet size per connected master and slave (bytes)
system.iobus.pkt_size_system.bridge.master::system.tsunami.fake_sm_chip.pio           10                       # Cumulative packet size per connected master and slave (bytes)
system.iobus.pkt_size_system.bridge.master::system.tsunami.fake_uart4.pio           10                       # Cumulative packet size per connected master and slave (bytes)
system.iobus.pkt_size_system.bridge.master::system.tsunami.fake_ata0.pio           11                       # Cumulative packet size per connected master and slave (bytes)
system.iobus.pkt_size_system.bridge.master::system.tsunami.fake_ata1.pio           11                       # Cumulative packet size per connected master and slave (bytes)
system.iobus.pkt_size_system.bridge.master::system.tsunami.io.pio          202                       # Cumulative packet size per connected master and slave (bytes)
system.iobus.pkt_size_system.bridge.master::system.tsunami.uart.pio        10248                       # Cumulative packet size per connected master and slave (bytes)
system.iobus.pkt_size_system.bridge.master::system.tsunami.backdoor.pio        14660                       # Cumulative packet size per connected master and slave (bytes)
system.iobus.pkt_size_system.bridge.master::system.tsunami.ide.pio         3746                       # Cumulative packet size per connected master and slave (bytes)
system.iobus.pkt_size_system.bridge.master::system.tsunami.ide-pciconf          400                       # Cumulative packet size per connected master and slave (bytes)
system.iobus.pkt_size_system.bridge.master::system.tsunami.ethernet.pio          200                       # Cumulative packet size per connected master and slave (bytes)
system.iobus.pkt_size_system.bridge.master::system.tsunami.ethernet-pciconf          311                       # Cumulative packet size per connected master and slave (bytes)
system.iobus.pkt_size_system.bridge.master::system.tsunami.pciconfig.pio          120                       # Cumulative packet size per connected master and slave (bytes)
system.iobus.pkt_size_system.bridge.master::total       181025                       # Cumulative packet size per connected master and slave (bytes)
system.iobus.pkt_size_system.tsunami.ide.dma::system.iocache.cpu_side      2837640                       # Cumulative packet size per connected master and slave (bytes)
system.iobus.pkt_size_system.tsunami.ide.dma::total      2837640                       # Cumulative packet size per connected master and slave (bytes)
system.iobus.pkt_size::total                  3018665                       # Cumulative packet size per connected master and slave (bytes)
system.cpu0.icache.tags.replacements           629669                       # number of replacements
system.cpu0.icache.tags.tagsinuse          506.498877                       # Cycle average of tags in use
system.cpu0.icache.tags.total_refs           66724551                       # Total number of references to valid blocks.
system.cpu0.icache.tags.sampled_refs           629669                       # Sample count of references to valid blocks.
system.cpu0.icache.tags.avg_refs           105.967661                       # Average number of references to valid blocks.
system.cpu0.icache.tags.warmup_cycle     160794430000                       # Cycle when the warmup percentage was hit.
system.cpu0.icache.tags.occ_blocks::cpu0.inst   506.498877                       # Average occupied blocks per requestor
system.cpu0.icache.tags.occ_percent::cpu0.inst     0.989256                       # Average percentage of cache occupancy
system.cpu0.icache.tags.occ_percent::total     0.989256                       # Average percentage of cache occupancy
system.cpu0.icache.tags.occ_task_id_blocks::1024          512                       # Occupied blocks per task id
system.cpu0.icache.tags.age_task_id_blocks_1024::1            1                       # Occupied blocks per task id
[...]
system.cpu3.op_class::SimdFloatDiv                  0      0.00%     60.16% # Class of executed instruction
system.cpu3.op_class::SimdFloatMisc                 0      0.00%     60.16% # Class of executed instruction
system.cpu3.op_class::SimdFloatMult                 0      0.00%     60.16% # Class of executed instruction
system.cpu3.op_class::SimdFloatMultAcc              0      0.00%     60.16% # Class of executed instruction
system.cpu3.op_class::SimdFloatSqrt                 0      0.00%     60.16% # Class of executed instruction
system.cpu3.op_class::MemRead                    3005     23.09%     83.26% # Class of executed instruction
system.cpu3.op_class::MemWrite                   1562     12.00%     95.26% # Class of executed instruction
system.cpu3.op_class::IprAccess                   617      4.74%    100.00% # Class of executed instruction
system.cpu3.op_class::InstPrefetch                  0      0.00%    100.00% # Class of executed instruction
system.cpu3.op_class::total                     13013                       # Class of executed instruction
system.cpu3.kern.inst.arm                           0                       # number of arm instructions executed
system.cpu3.kern.inst.quiesce                       9                       # number of quiesce instructions executed
system.cpu3.kern.inst.hwrei                       150                       # number of hwrei instructions executed
system.cpu3.kern.ipl_count::0                      33     24.63%     24.63% # number of times we switched to this ipl
system.cpu3.kern.ipl_count::22                      8      5.97%     30.60% # number of times we switched to this ipl
system.cpu3.kern.ipl_count::30                      1      0.75%     31.34% # number of times we switched to this ipl
system.cpu3.kern.ipl_count::31                     92     68.66%    100.00% # number of times we switched to this ipl
system.cpu3.kern.ipl_count::total                 134                       # number of times we switched to this ipl
system.cpu3.kern.ipl_good::0                       33     44.59%     44.59% # number of times we switched to this ipl from a different ipl
system.cpu3.kern.ipl_good::22                       8     10.81%     55.41% # number of times we switched to this ipl from a different ipl
system.cpu3.kern.ipl_good::30                       1      1.35%     56.76% # number of times we switched to this ipl from a different ipl
system.cpu3.kern.ipl_good::31                      32     43.24%    100.00% # number of times we switched to this ipl from a different ipl
system.cpu3.kern.ipl_good::total                   74                       # number of times we switched to this ipl from a different ipl
system.cpu3.kern.ipl_ticks::0              7704020000     98.63%     98.63% # number of cycles we spent at this ipl
system.cpu3.kern.ipl_ticks::22                7840000      0.10%     98.73% # number of cycles we spent at this ipl
system.cpu3.kern.ipl_ticks::30                3290000      0.04%     98.77% # number of cycles we spent at this ipl
system.cpu3.kern.ipl_ticks::31               96260000      1.23%    100.00% # number of cycles we spent at this ipl
system.cpu3.kern.ipl_ticks::total          7811410000                       # number of cycles we spent at this ipl
system.cpu3.kern.ipl_used::0                        1                       # fraction of swpipl calls that actually changed the ipl
system.cpu3.kern.ipl_used::22                       1                       # fraction of swpipl calls that actually changed the ipl
system.cpu3.kern.ipl_used::30                       1                       # fraction of swpipl calls that actually changed the ipl
system.cpu3.kern.ipl_used::31                0.347826                       # fraction of swpipl calls that actually changed the ipl
system.cpu3.kern.ipl_used::total             0.552239                       # fraction of swpipl calls that actually changed the ipl
system.cpu3.kern.callpal::swpipl                  116     82.27%     82.27% # number of callpals executed
system.cpu3.kern.callpal::rdps                     16     11.35%     93.62% # number of callpals executed
system.cpu3.kern.callpal::rti                       9      6.38%    100.00% # number of callpals executed
system.cpu3.kern.callpal::total                   141                       # number of callpals executed
system.cpu3.kern.mode_switch::kernel                9                       # number of protection mode switches
system.cpu3.kern.mode_switch::user                  0                       # number of protection mode switches
system.cpu3.kern.mode_switch::idle                  0                       # number of protection mode switches
system.cpu3.kern.mode_good::kernel                  0                      
system.cpu3.kern.mode_good::user                    0                      
system.cpu3.kern.mode_good::idle                    0                      
system.cpu3.kern.mode_switch_good::kernel            0                       # fraction of useful protection mode switches
system.cpu3.kern.mode_switch_good::user           nan                       # fraction of useful protection mode switches
system.cpu3.kern.mode_switch_good::idle           nan                       # fraction of useful protection mode switches
system.cpu3.kern.mode_switch_good::total            0                       # fraction of useful protection mode switches
system.cpu3.kern.mode_ticks::kernel                 0                       # number of ticks spent at the given mode
system.cpu3.kern.mode_ticks::user                   0                       # number of ticks spent at the given mode
system.cpu3.kern.mode_ticks::idle                   0                       # number of ticks spent at the given mode
system.cpu3.kern.swap_context                       0                       # number of times the context was actually changed
system.cpu3.icache.tags.replacements                8                       # number of replacements
system.cpu3.icache.tags.tagsinuse                 512                       # Cycle average of tags in use
system.cpu3.icache.tags.total_refs             476650                       # Total number of references to valid blocks.
system.cpu3.icache.tags.sampled_refs              520                       # Sample count of references to valid blocks.
system.cpu3.icache.tags.avg_refs           916.634615                       # Average number of references to valid blocks.
system.cpu3.icache.tags.warmup_cycle                0                       # Cycle when the warmup percentage was hit.
system.cpu3.icache.tags.occ_blocks::cpu3.inst          512                       # Average occupied blocks per requestor
system.cpu3.icache.tags.occ_percent::cpu3.inst            1                       # Average percentage of cache occupancy
system.cpu3.icache.tags.occ_percent::total            1                       # Average percentage of cache occupancy
system.cpu3.icache.tags.occ_task_id_blocks::1024          512                       # Occupied blocks per task id
system.cpu3.icache.tags.age_task_id_blocks_1024::3           12                       # Occupied blocks per task id
system.cpu3.icache.tags.age_task_id_blocks_1024::4          500                       # Occupied blocks per task id
system.cpu3.icache.tags.occ_task_id_percent::1024            1                       # Percentage of cache occupancy per task id
system.cpu3.icache.tags.tag_accesses            26034                       # Number of tag accesses
system.cpu3.icache.tags.data_accesses           26034                       # Number of data accesses
system.cpu3.icache.ReadReq_hits::cpu3.inst        13005                       # number of ReadReq hits
system.cpu3.icache.ReadReq_hits::total          13005                       # number of ReadReq hits
system.cpu3.icache.demand_hits::cpu3.inst        13005                       # number of demand (read+write) hits
system.cpu3.icache.demand_hits::total           13005                       # number of demand (read+write) hits
system.cpu3.icache.overall_hits::cpu3.inst        13005                       # number of overall hits
system.cpu3.icache.overall_hits::total          13005                       # number of overall hits
system.cpu3.icache.ReadReq_misses::cpu3.inst            8                       # number of ReadReq misses
system.cpu3.icache.ReadReq_misses::total            8                       # number of ReadReq misses
system.cpu3.icache.demand_misses::cpu3.inst            8                       # number of demand (read+write) misses
system.cpu3.icache.demand_misses::total             8                       # number of demand (read+write) misses
system.cpu3.icache.overall_misses::cpu3.inst            8                       # number of overall misses
system.cpu3.icache.overall_misses::total            8                       # number of overall misses
system.cpu3.icache.ReadReq_accesses::cpu3.inst        13013                       # number of ReadReq accesses(hits+misses)
system.cpu3.icache.ReadReq_accesses::total        13013                       # number of ReadReq accesses(hits+misses)
system.cpu3.icache.demand_accesses::cpu3.inst        13013                       # number of demand (read+write) accesses
system.cpu3.icache.demand_accesses::total        13013                       # number of demand (read+write) accesses
system.cpu3.icache.overall_accesses::cpu3.inst        13013                       # number of overall (read+write) accesses
system.cpu3.icache.overall_accesses::total        13013                       # number of overall (read+write) accesses
system.cpu3.icache.ReadReq_miss_rate::cpu3.inst     0.000615                       # miss rate for ReadReq accesses
system.cpu3.icache.ReadReq_miss_rate::total     0.000615                       # miss rate for ReadReq accesses
system.cpu3.icache.demand_miss_rate::cpu3.inst     0.000615                       # miss rate for demand accesses
system.cpu3.icache.demand_miss_rate::total     0.000615                       # miss rate for demand accesses
system.cpu3.icache.overall_miss_rate::cpu3.inst     0.000615                       # miss rate for overall accesses
system.cpu3.icache.overall_miss_rate::total     0.000615                       # miss rate for overall accesses
system.cpu3.icache.blocked_cycles::no_mshrs            0                       # number of cycles access was blocked
system.cpu3.icache.blocked_cycles::no_targets            0                       # number of cycles access was blocked
system.cpu3.icache.blocked::no_mshrs                0                       # number of cycles access was blocked
system.cpu3.icache.blocked::no_targets              0                       # number of cycles access was blocked
system.cpu3.icache.avg_blocked_cycles::no_mshrs          nan                       # average number of cycles each access was blocked
system.cpu3.icache.avg_blocked_cycles::no_targets          nan                       # average number of cycles each access was blocked
system.cpu3.icache.fast_writes                      0                       # number of fast writes performed
system.cpu3.icache.cache_copies                     0                       # number of cache copies performed
system.cpu3.icache.no_allocate_misses               0                       # Number of misses that were no-allocate
system.cpu3.dcache.tags.replacements                0                       # number of replacements
system.cpu3.dcache.tags.tagsinuse          595.334179                       # Cycle average of tags in use
system.cpu3.dcache.tags.total_refs              14892                       # Total number of references to valid blocks.
system.cpu3.dcache.tags.sampled_refs              589                       # Sample count of references to valid blocks.
system.cpu3.dcache.tags.avg_refs            25.283531                       # Average number of references to valid blocks.
system.cpu3.dcache.tags.warmup_cycle                0                       # Cycle when the warmup percentage was hit.
system.cpu3.dcache.tags.occ_blocks::cpu3.data   595.334179                       # Average occupied blocks per requestor
system.cpu3.dcache.tags.occ_percent::cpu3.data     0.581381                       # Average percentage of cache occupancy
system.cpu3.dcache.tags.occ_percent::total     0.581381                       # Average percentage of cache occupancy
system.cpu3.dcache.tags.occ_task_id_blocks::1024          589                       # Occupied blocks per task id
system.cpu3.dcache.tags.age_task_id_blocks_1024::2            2                       # Occupied blocks per task id
system.cpu3.dcache.tags.age_task_id_blocks_1024::3           11                       # Occupied blocks per task id
system.cpu3.dcache.tags.age_task_id_blocks_1024::4          576                       # Occupied blocks per task id
system.cpu3.dcache.tags.occ_task_id_percent::1024     0.575195                       # Percentage of cache occupancy per task id
system.cpu3.dcache.tags.tag_accesses             8899                       # Number of tag accesses
system.cpu3.dcache.tags.data_accesses            8899                       # Number of data accesses
system.cpu3.dcache.ReadReq_hits::cpu3.data         2798                       # number of ReadReq hits
system.cpu3.dcache.ReadReq_hits::total           2798                       # number of ReadReq hits
system.cpu3.dcache.WriteReq_hits::cpu3.data         1493                       # number of WriteReq hits
system.cpu3.dcache.WriteReq_hits::total          1493                       # number of WriteReq hits
system.cpu3.dcache.LoadLockedReq_hits::cpu3.data           39                       # number of LoadLockedReq hits
system.cpu3.dcache.LoadLockedReq_hits::total           39                       # number of LoadLockedReq hits
system.cpu3.dcache.StoreCondReq_hits::cpu3.data           34                       # number of StoreCondReq hits
system.cpu3.dcache.StoreCondReq_hits::total           34                       # number of StoreCondReq hits
system.cpu3.dcache.demand_hits::cpu3.data         4291                       # number of demand (read+write) hits
system.cpu3.dcache.demand_hits::total            4291                       # number of demand (read+write) hits
system.cpu3.dcache.overall_hits::cpu3.data         4291                       # number of overall hits
system.cpu3.dcache.overall_hits::total           4291                       # number of overall hits
system.cpu3.dcache.ReadReq_misses::cpu3.data           41                       # number of ReadReq misses
system.cpu3.dcache.ReadReq_misses::total           41                       # number of ReadReq misses
system.cpu3.dcache.WriteReq_misses::cpu3.data            9                       # number of WriteReq misses
system.cpu3.dcache.WriteReq_misses::total            9                       # number of WriteReq misses
system.cpu3.dcache.LoadLockedReq_misses::cpu3.data            4                       # number of LoadLockedReq misses
system.cpu3.dcache.LoadLockedReq_misses::total            4                       # number of LoadLockedReq misses
system.cpu3.dcache.StoreCondReq_misses::cpu3.data            8                       # number of StoreCondReq misses
system.cpu3.dcache.StoreCondReq_misses::total            8                       # number of StoreCondReq misses
system.cpu3.dcache.demand_misses::cpu3.data           50                       # number of demand (read+write) misses
system.cpu3.dcache.demand_misses::total            50                       # number of demand (read+write) misses
system.cpu3.dcache.overall_misses::cpu3.data           50                       # number of overall misses
system.cpu3.dcache.overall_misses::total           50                       # number of overall misses
system.cpu3.dcache.ReadReq_accesses::cpu3.data         2839                       # number of ReadReq accesses(hits+misses)
system.cpu3.dcache.ReadReq_accesses::total         2839                       # number of ReadReq accesses(hits+misses)
system.cpu3.dcache.WriteReq_accesses::cpu3.data         1502                       # number of WriteReq accesses(hits+misses)
system.cpu3.dcache.WriteReq_accesses::total         1502                       # number of WriteReq accesses(hits+misses)
system.cpu3.dcache.LoadLockedReq_accesses::cpu3.data           43                       # number of LoadLockedReq accesses(hits+misses)
system.cpu3.dcache.LoadLockedReq_accesses::total           43                       # number of LoadLockedReq accesses(hits+misses)
system.cpu3.dcache.StoreCondReq_accesses::cpu3.data           42                       # number of StoreCondReq accesses(hits+misses)
system.cpu3.dcache.StoreCondReq_accesses::total           42                       # number of StoreCondReq accesses(hits+misses)
system.cpu3.dcache.demand_accesses::cpu3.data         4341                       # number of demand (read+write) accesses
system.cpu3.dcache.demand_accesses::total         4341                       # number of demand (read+write) accesses
system.cpu3.dcache.overall_accesses::cpu3.data         4341                       # number of overall (read+write) accesses
system.cpu3.dcache.overall_accesses::total         4341                       # number of overall (read+write) accesses
system.cpu3.dcache.ReadReq_miss_rate::cpu3.data     0.014442                       # miss rate for ReadReq accesses
system.cpu3.dcache.ReadReq_miss_rate::total     0.014442                       # miss rate for ReadReq accesses
system.cpu3.dcache.WriteReq_miss_rate::cpu3.data     0.005992                       # miss rate for WriteReq accesses
system.cpu3.dcache.WriteReq_miss_rate::total     0.005992                       # miss rate for WriteReq accesses
system.cpu3.dcache.LoadLockedReq_miss_rate::cpu3.data     0.093023                       # miss rate for LoadLockedReq accesses
system.cpu3.dcache.LoadLockedReq_miss_rate::total     0.093023                       # miss rate for LoadLockedReq accesses
system.cpu3.dcache.StoreCondReq_miss_rate::cpu3.data     0.190476                       # miss rate for StoreCondReq accesses
system.cpu3.dcache.StoreCondReq_miss_rate::total     0.190476                       # miss rate for StoreCondReq accesses
system.cpu3.dcache.demand_miss_rate::cpu3.data     0.011518                       # miss rate for demand accesses
system.cpu3.dcache.demand_miss_rate::total     0.011518                       # miss rate for demand accesses
system.cpu3.dcache.overall_miss_rate::cpu3.data     0.011518                       # miss rate for overall accesses
system.cpu3.dcache.overall_miss_rate::total     0.011518                       # miss rate for overall accesses
system.cpu3.dcache.blocked_cycles::no_mshrs            0                       # number of cycles access was blocked
system.cpu3.dcache.blocked_cycles::no_targets            0                       # number of cycles access was blocked
system.cpu3.dcache.blocked::no_mshrs                0                       # number of cycles access was blocked
system.cpu3.dcache.blocked::no_targets              0                       # number of cycles access was blocked
system.cpu3.dcache.avg_blocked_cycles::no_mshrs          nan                       # average number of cycles each access was blocked
system.cpu3.dcache.avg_blocked_cycles::no_targets          nan                       # average number of cycles each access was blocked
system.cpu3.dcache.fast_writes                      0                       # number of fast writes performed
system.cpu3.dcache.cache_copies                     0                       # number of cache copies performed
system.cpu3.dcache.no_allocate_misses               0                       # Number of misses that were no-allocate

---------- End Simulation Statistics   ----------
