
---------- Begin Simulation Statistics ----------
sim_seconds                                  4.862062                       # Number of seconds simulated
sim_ticks                                4862062050000                       # Number of ticks simulated
final_tick                               4862062050000                       # Number of ticks from beginning of simulation (restored from checkpoints and never reset)
sim_freq                                 1000000000000                       # Frequency of simulated ticks
host_inst_rate                                1506629                       # Simulator instruction rate (inst/s)
host_op_rate                                  1506629                       # Simulator op (including micro ops) rate (op/s)
host_tick_rate                            77539877821                       # Simulator tick rate (ticks/s)
host_mem_usage                                 453104                       # Number of bytes of host memory used
host_seconds                                    62.70                       # Real time elapsed on the host
sim_insts                                    94471680                       # Number of instructions simulated
sim_ops                                      94471680                       # Number of ops (including micro ops) simulated
system.voltage_domain.voltage                       1                       # Voltage in Volts
system.clk_domain.clock                          1000                       # Clock period in ticks
system.mem_ctrls.bytes_read::cpu.inst       101148096                       # Number of bytes read from this memory
system.mem_ctrls.bytes_read::cpu.data       188112960                       # Number of bytes read from this memory
system.mem_ctrls.bytes_read::tsunami.ide         4032                       # Number of bytes read from this memory
system.mem_ctrls.bytes_read::total          289265088                       # Number of bytes read from this memory
system.mem_ctrls.bytes_inst_read::cpu.inst    101148096                       # Number of instructions bytes read from this memory
system.mem_ctrls.bytes_inst_read::total     101148096                       # Number of instructions bytes read from this memory
system.mem_ctrls.bytes_written::writebacks     32508608                       # Number of bytes written to this memory
system.mem_ctrls.bytes_written::tsunami.ide      2832384                       # Number of bytes written to this memory
system.mem_ctrls.bytes_written::total        35340992                       # Number of bytes written to this memory
system.mem_ctrls.num_reads::cpu.inst          1580439                       # Number of read requests responded to by this memory
system.mem_ctrls.num_reads::cpu.data          2939265                       # Number of read requests responded to by this memory
system.mem_ctrls.num_reads::tsunami.ide            63                       # Number of read requests responded to by this memory
system.mem_ctrls.num_reads::total             4519767                       # Number of read requests responded to by this memory
system.mem_ctrls.num_writes::writebacks        507947                       # Number of write requests responded to by this memory
system.mem_ctrls.num_writes::tsunami.ide        44256                       # Number of write requests responded to by this memory
system.mem_ctrls.num_writes::total             552203                       # Number of write requests responded to by this memory
system.mem_ctrls.bw_read::cpu.inst           20803539                       # Total read bandwidth from this memory (bytes/s)
system.mem_ctrls.bw_read::cpu.data           38689955                       # Total read bandwidth from this memory (bytes/s)
system.mem_ctrls.bw_read::tsunami.ide             829                       # Total read bandwidth from this memory (bytes/s)
system.mem_ctrls.bw_read::total              59494323                       # Total read bandwidth from this memory (bytes/s)
system.mem_ctrls.bw_inst_read::cpu.inst      20803539                       # Instruction read bandwidth from this memory (bytes/s)
system.mem_ctrls.bw_inst_read::total         20803539                       # Instruction read bandwidth from this memory (bytes/s)
system.mem_ctrls.bw_write::writebacks         6686177                       # Write bandwidth from this memory (bytes/s)
system.mem_ctrls.bw_write::tsunami.ide         582548                       # Write bandwidth from this memory (bytes/s)
system.mem_ctrls.bw_write::total              7268725                       # Write bandwidth from this memory (bytes/s)
system.mem_ctrls.bw_total::writebacks         6686177                       # Total bandwidth to/from this memory (bytes/s)
system.mem_ctrls.bw_total::cpu.inst          20803539                       # Total bandwidth to/from this memory (bytes/s)
system.mem_ctrls.bw_total::cpu.data          38689955                       # Total bandwidth to/from this memory (bytes/s)
system.mem_ctrls.bw_total::tsunami.ide         583377                       # Total bandwidth to/from this memory (bytes/s)
system.mem_ctrls.bw_total::total             66763048                       # Total bandwidth to/from this memory (bytes/s)
system.mem_ctrls.readReqs                     4519767                       # Number of read requests accepted
system.mem_ctrls.writeReqs                     552203                       # Number of write requests accepted
system.mem_ctrls.readBursts                   4519767                       # Number of DRAM read bursts, including those serviced by the write queue
system.mem_ctrls.writeBursts                   552203                       # Number of DRAM write bursts, including those merged in the write queue
system.mem_ctrls.bytesReadDRAM              286697792                       # Total number of bytes read from DRAM
system.mem_ctrls.bytesReadWrQ                 2567296                       # Total number of bytes read from write queue
system.mem_ctrls.bytesWritten                34987712                       # Total number of bytes written to DRAM
system.mem_ctrls.bytesReadSys               289265088                       # Total read bytes from the system interface side
system.mem_ctrls.bytesWrittenSys             35340992                       # Total written bytes from the system interface side
system.mem_ctrls.servicedByWrQ                  40114                       # Number of DRAM read bursts serviced by the write queue
system.mem_ctrls.mergedWrBursts                  5493                       # Number of DRAM write bursts merged with an existing one
system.mem_ctrls.neitherReadNorWriteReqs           36                       # Number of requests that are neither read nor write
system.mem_ctrls.perBankRdBursts::0            392567                       # Per bank write bursts
system.mem_ctrls.perBankRdBursts::1            269693                       # Per bank write bursts
system.mem_ctrls.perBankRdBursts::2            264369                       # Per bank write bursts
system.mem_ctrls.perBankRdBursts::3            220637                       # Per bank write bursts
system.mem_ctrls.perBankRdBursts::4            159621                       # Per bank write bursts
system.mem_ctrls.perBankRdBursts::5            253231                       # Per bank write bursts
system.mem_ctrls.perBankRdBursts::6            220735                       # Per bank write bursts
system.mem_ctrls.perBankRdBursts::7            223784                       # Per bank write bursts
system.mem_ctrls.perBankRdBursts::8            321127                       # Per bank write bursts
system.mem_ctrls.perBankRdBursts::9            332459                       # Per bank write bursts
system.mem_ctrls.perBankRdBursts::10           298449                       # Per bank write bursts
system.mem_ctrls.perBankRdBursts::11           377282                       # Per bank write bursts
system.mem_ctrls.perBankRdBursts::12           327096                       # Per bank write bursts
system.mem_ctrls.perBankRdBursts::13           355852                       # Per bank write bursts
system.mem_ctrls.perBankRdBursts::14           270042                       # Per bank write bursts
system.mem_ctrls.perBankRdBursts::15           192709                       # Per bank write bursts
system.mem_ctrls.perBankWrBursts::0             23659                       # Per bank write bursts
system.mem_ctrls.perBankWrBursts::1             41307                       # Per bank write bursts
system.mem_ctrls.perBankWrBursts::2             62357                       # Per bank write bursts
system.mem_ctrls.perBankWrBursts::3             23597                       # Per bank write bursts
system.mem_ctrls.perBankWrBursts::4             20394                       # Per bank write bursts
system.mem_ctrls.perBankWrBursts::5             19972                       # Per bank write bursts
system.mem_ctrls.perBankWrBursts::6             24160                       # Per bank write bursts
system.mem_ctrls.perBankWrBursts::7             36771                       # Per bank write bursts
system.mem_ctrls.perBankWrBursts::8             32077                       # Per bank write bursts
system.mem_ctrls.perBankWrBursts::9             27121                       # Per bank write bursts
system.mem_ctrls.perBankWrBursts::10            24489                       # Per bank write bursts
system.mem_ctrls.perBankWrBursts::11            51709                       # Per bank write bursts
system.mem_ctrls.perBankWrBursts::12            62627                       # Per bank write bursts
system.mem_ctrls.perBankWrBursts::13            45022                       # Per bank write bursts
system.mem_ctrls.perBankWrBursts::14            23882                       # Per bank write bursts
system.mem_ctrls.perBankWrBursts::15            27539                       # Per bank write bursts
system.mem_ctrls.numRdRetry                         0                       # Number of times read queue was full causing retry
system.mem_ctrls.numWrRetry                        18                       # Number of times write queue was full causing retry
system.mem_ctrls.totGap                  4862061960000                       # Total gap between requests
system.mem_ctrls.readPktSize::0                     0                       # Read request sizes (log2)
system.mem_ctrls.readPktSize::1                     0                       # Read request sizes (log2)
system.mem_ctrls.readPktSize::2                     0                       # Read request sizes (log2)
system.mem_ctrls.readPktSize::3                     0                       # Read request sizes (log2)
system.mem_ctrls.readPktSize::4                     0                       # Read request sizes (log2)
system.mem_ctrls.readPktSize::5                     0                       # Read request sizes (log2)
system.mem_ctrls.readPktSize::6               4519767                       # Read request sizes (log2)
system.mem_ctrls.writePktSize::0                    0                       # Write request sizes (log2)
system.mem_ctrls.writePktSize::1                    0                       # Write request sizes (log2)
system.mem_ctrls.writePktSize::2                    0                       # Write request sizes (log2)
system.mem_ctrls.writePktSize::3                    0                       # Write request sizes (log2)
system.mem_ctrls.writePktSize::4                    0                       # Write request sizes (log2)
system.mem_ctrls.writePktSize::5                    0                       # Write request sizes (log2)
system.mem_ctrls.writePktSize::6               552203                       # Write request sizes (log2)
system.mem_ctrls.rdQLenPdf::0                 4479591                       # What read queue length does an incoming req see
system.mem_ctrls.rdQLenPdf::1                       1                       # What read queue length does an incoming req see
system.mem_ctrls.rdQLenPdf::2                      23                       # What read queue length does an incoming req see
system.mem_ctrls.rdQLenPdf::3                       6                       # What read queue length does an incoming req see
system.mem_ctrls.rdQLenPdf::4                       8                       # What read queue length does an incoming req see
system.mem_ctrls.rdQLenPdf::5                       4                       # What read queue length does an incoming req see
system.mem_ctrls.rdQLenPdf::6                       4                       # What read queue length does an incoming req see
system.mem_ctrls.rdQLenPdf::7                       3                       # What read queue length does an incoming req see
system.mem_ctrls.rdQLenPdf::8                       2                       # What read queue length does an incoming req see
system.mem_ctrls.rdQLenPdf::9                       1                       # What read queue length does an incoming req see
system.mem_ctrls.rdQLenPdf::10                      1                       # What read queue length does an incoming req see
system.mem_ctrls.rdQLenPdf::11                      2                       # What read queue length does an incoming req see
system.mem_ctrls.rdQLenPdf::12                      1                       # What read queue length does an incoming req see
system.mem_ctrls.rdQLenPdf::13                      1                       # What read queue length does an incoming req see
system.mem_ctrls.rdQLenPdf::14                      1                       # What read queue length does an incoming req see
system.mem_ctrls.rdQLenPdf::15                      1                       # What read queue length does an incoming req see
system.mem_ctrls.rdQLenPdf::16                      1                       # What read queue length does an incoming req see
system.mem_ctrls.rdQLenPdf::17                      1                       # What read queue length does an incoming req see
system.mem_ctrls.rdQLenPdf::18                      1                       # What read queue length does an incoming req see
system.mem_ctrls.rdQLenPdf::19                      0                       # What read queue length does an incoming req see
system.mem_ctrls.rdQLenPdf::20                      0                       # What read queue length does an incoming req see
system.mem_ctrls.rdQLenPdf::21                      0                       # What read queue length does an incoming req see
system.mem_ctrls.rdQLenPdf::22                      0                       # What read queue length does an incoming req see
system.mem_ctrls.rdQLenPdf::23                      0                       # What read queue length does an incoming req see
system.mem_ctrls.rdQLenPdf::24                      0                       # What read queue length does an incoming req see
system.mem_ctrls.rdQLenPdf::25                      0                       # What read queue length does an incoming req see
system.mem_ctrls.rdQLenPdf::26                      0                       # What read queue length does an incoming req see
system.mem_ctrls.rdQLenPdf::27                      0                       # What read queue length does an incoming req see
system.mem_ctrls.rdQLenPdf::28                      0                       # What read queue length does an incoming req see
system.mem_ctrls.rdQLenPdf::29                      0                       # What read queue length does an incoming req see
system.mem_ctrls.rdQLenPdf::30                      0                       # What read queue length does an incoming req see
system.mem_ctrls.rdQLenPdf::31                      0                       # What read queue length does an incoming req see
system.mem_ctrls.wrQLenPdf::0                       1                       # What write queue length does an incoming req see
system.mem_ctrls.wrQLenPdf::1                       1                       # What write queue length does an incoming req see
system.mem_ctrls.wrQLenPdf::2                       1                       # What write queue length does an incoming req see
system.mem_ctrls.wrQLenPdf::3                       1                       # What write queue length does an incoming req see
system.mem_ctrls.wrQLenPdf::4                       1                       # What write queue length does an incoming req see
system.mem_ctrls.wrQLenPdf::5                       1                       # What write queue length does an incoming req see
system.mem_ctrls.wrQLenPdf::6                       1                       # What write queue length does an incoming req see
system.mem_ctrls.wrQLenPdf::7                       1                       # What write queue length does an incoming req see
system.mem_ctrls.wrQLenPdf::8                       1                       # What write queue length does an incoming req see
system.mem_ctrls.wrQLenPdf::9                       1                       # What write queue length does an incoming req see
system.mem_ctrls.wrQLenPdf::10                      1                       # What write queue length does an incoming req see
system.mem_ctrls.wrQLenPdf::11                      1                       # What write queue length does an incoming req see
system.mem_ctrls.wrQLenPdf::12                      1                       # What write queue length does an incoming req see
system.mem_ctrls.wrQLenPdf::13                      1                       # What write queue length does an incoming req see
system.mem_ctrls.wrQLenPdf::14                      1                       # What write queue length does an incoming req see
system.mem_ctrls.wrQLenPdf::15                  25904                       # What write queue length does an incoming req see
system.mem_ctrls.wrQLenPdf::16                  26959                       # What write queue length does an incoming req see
system.mem_ctrls.wrQLenPdf::17                  29158                       # What write queue length does an incoming req see
system.mem_ctrls.wrQLenPdf::18                  29328                       # What write queue length does an incoming req see
system.mem_ctrls.wrQLenPdf::19                  29450                       # What write queue length does an incoming req see
system.mem_ctrls.wrQLenPdf::20                  29839                       # What write queue length does an incoming req see
system.mem_ctrls.wrQLenPdf::21                  30022                       # What write queue length does an incoming req see
system.mem_ctrls.wrQLenPdf::22                  30680                       # What write queue length does an incoming req see
system.mem_ctrls.wrQLenPdf::23                  31054                       # What write queue length does an incoming req see
system.mem_ctrls.wrQLenPdf::24                  31867                       # What write queue length does an incoming req see
system.mem_ctrls.wrQLenPdf::25                  31729                       # What write queue length does an incoming req see
system.mem_ctrls.wrQLenPdf::26                  31586                       # What write queue length does an incoming req see
system.mem_ctrls.wrQLenPdf::27                  31271                       # What write queue length does an incoming req see
system.mem_ctrls.wrQLenPdf::28                  31371                       # What write queue length does an incoming req see
system.mem_ctrls.wrQLenPdf::29                  30568                       # What write queue length does an incoming req see
system.mem_ctrls.wrQLenPdf::30                  30310                       # What write queue length does an incoming req see
system.mem_ctrls.wrQLenPdf::31                  30002                       # What write queue length does an incoming req see
system.mem_ctrls.wrQLenPdf::32                  29931                       # What write queue length does an incoming req see
system.mem_ctrls.wrQLenPdf::33                    490                       # What write queue length does an incoming req see
system.mem_ctrls.wrQLenPdf::34                    381                       # What write queue length does an incoming req see
system.mem_ctrls.wrQLenPdf::35                    319                       # What write queue length does an incoming req see
system.mem_ctrls.wrQLenPdf::36                    314                       # What write queue length does an incoming req see
system.mem_ctrls.wrQLenPdf::37                    266                       # What write queue length does an incoming req see
system.mem_ctrls.wrQLenPdf::38                    224                       # What write queue length does an incoming req see
system.mem_ctrls.wrQLenPdf::39                    205                       # What write queue length does an incoming req see
system.mem_ctrls.wrQLenPdf::40                    193                       # What write queue length does an incoming req see
system.mem_ctrls.wrQLenPdf::41                    180                       # What write queue length does an incoming req see
system.mem_ctrls.wrQLenPdf::42                    170                       # What write queue length does an incoming req see
system.mem_ctrls.wrQLenPdf::43                    179                       # What write queue length does an incoming req see
system.mem_ctrls.wrQLenPdf::44                    196                       # What write queue length does an incoming req see
system.mem_ctrls.wrQLenPdf::45                    201                       # What write queue length does an incoming req see
system.mem_ctrls.wrQLenPdf::46                    209                       # What write queue length does an incoming req see
system.mem_ctrls.wrQLenPdf::47                    203                       # What write queue length does an incoming req see
system.mem_ctrls.wrQLenPdf::48                    211                       # What write queue length does an incoming req see
system.mem_ctrls.wrQLenPdf::49                    171                       # What write queue length does an incoming req see
system.mem_ctrls.wrQLenPdf::50                    150                       # What write queue length does an incoming req see
system.mem_ctrls.wrQLenPdf::51                    141                       # What write queue length does an incoming req see
system.mem_ctrls.wrQLenPdf::52                    136                       # What write queue length does an incoming req see
system.mem_ctrls.wrQLenPdf::53                    127                       # What write queue length does an incoming req see
system.mem_ctrls.wrQLenPdf::54                    131                       # What write queue length does an incoming req see
system.mem_ctrls.wrQLenPdf::55                    141                       # What write queue length does an incoming req see
system.mem_ctrls.wrQLenPdf::56                    141                       # What write queue length does an incoming req see
system.mem_ctrls.wrQLenPdf::57                    136                       # What write queue length does an incoming req see
system.mem_ctrls.wrQLenPdf::58                    124                       # What write queue length does an incoming req see
system.mem_ctrls.wrQLenPdf::59                     99                       # What write queue length does an incoming req see
system.mem_ctrls.wrQLenPdf::60                     81                       # What write queue length does an incoming req see
system.mem_ctrls.wrQLenPdf::61                     64                       # What write queue length does an incoming req see
system.mem_ctrls.wrQLenPdf::62                     42                       # What write queue length does an incoming req see
system.mem_ctrls.wrQLenPdf::63                     41                       # What write queue length does an incoming req see
system.mem_ctrls.bytesPerActivate::samples      1521857                       # Bytes accessed per row activation
system.mem_ctrls.bytesPerActivate::mean    211.376874                       # Bytes accessed per row activation
system.mem_ctrls.bytesPerActivate::gmean   139.800958                       # Bytes accessed per row activation
system.mem_ctrls.bytesPerActivate::stdev   233.932440                       # Bytes accessed per row activation
system.mem_ctrls.bytesPerActivate::0-127       661080     43.44%     43.44% # Bytes accessed per row activation
system.mem_ctrls.bytesPerActivate::128-255       423133     27.80%     71.24% # Bytes accessed per row activation
system.mem_ctrls.bytesPerActivate::256-383       202273     13.29%     84.53% # Bytes accessed per row activation
system.mem_ctrls.bytesPerActivate::384-511        75197      4.94%     89.48% # Bytes accessed per row activation
system.mem_ctrls.bytesPerActivate::512-639        47956      3.15%     92.63% # Bytes accessed per row activation
system.mem_ctrls.bytesPerActivate::640-767        27794      1.83%     94.45% # Bytes accessed per row activation
system.mem_ctrls.bytesPerActivate::768-895        10051      0.66%     95.11% # Bytes accessed per row activation
system.mem_ctrls.bytesPerActivate::896-1023         6231      0.41%     95.52% # Bytes accessed per row activation
system.mem_ctrls.bytesPerActivate::1024-1151        68142      4.48%    100.00% # Bytes accessed per row activation
system.mem_ctrls.bytesPerActivate::total      1521857                       # Bytes accessed per row activation
system.mem_ctrls.rdPerTurnAround::samples        29361                       # Reads before turning the bus around for writes
system.mem_ctrls.rdPerTurnAround::mean     152.569974                       # Reads before turning the bus around for writes
system.mem_ctrls.rdPerTurnAround::stdev   6024.056788                       # Reads before turning the bus around for writes
system.mem_ctrls.rdPerTurnAround::0-32767        29360    100.00%    100.00% # Reads before turning the bus around for writes
system.mem_ctrls.rdPerTurnAround::1.01581e+06-1.04858e+06            1      0.00%    100.00% # Reads before turning the bus around for writes
system.mem_ctrls.rdPerTurnAround::total         29361                       # Reads before turning the bus around for writes
system.mem_ctrls.wrPerTurnAround::samples        29361                       # Writes before turning the bus around for reads
system.mem_ctrls.wrPerTurnAround::mean      18.619359                       # Writes before turning the bus around for reads
system.mem_ctrls.wrPerTurnAround::gmean     18.265376                       # Writes before turning the bus around for reads
system.mem_ctrls.wrPerTurnAround::stdev      5.733536                       # Writes before turning the bus around for reads
system.mem_ctrls.wrPerTurnAround::16-19         28396     96.71%     96.71% # Writes before turning the bus around for reads
system.mem_ctrls.wrPerTurnAround::20-23            95      0.32%     97.04% # Writes before turning the bus around for reads
system.mem_ctrls.wrPerTurnAround::24-27           111      0.38%     97.41% # Writes before turning the bus around for reads
system.mem_ctrls.wrPerTurnAround::28-31           196      0.67%     98.08% # Writes before turning the bus around for reads
system.mem_ctrls.wrPerTurnAround::32-35           133      0.45%     98.54% # Writes before turning the bus around for reads
system.mem_ctrls.wrPerTurnAround::36-39            63      0.21%     98.75% # Writes before turning the bus around for reads
system.mem_ctrls.wrPerTurnAround::40-43            50      0.17%     98.92% # Writes before turning the bus around for reads
system.mem_ctrls.wrPerTurnAround::44-47            59      0.20%     99.12% # Writes before turning the bus around for reads
system.mem_ctrls.wrPerTurnAround::48-51            35      0.12%     99.24% # Writes before turning the bus around for reads
system.mem_ctrls.wrPerTurnAround::52-55            21      0.07%     99.31% # Writes before turning the bus around for reads
system.mem_ctrls.wrPerTurnAround::56-59            31      0.11%     99.42% # Writes before turning the bus around for reads
system.mem_ctrls.wrPerTurnAround::60-63            25      0.09%     99.50% # Writes before turning the bus around for reads
system.mem_ctrls.wrPerTurnAround::64-67            29      0.10%     99.60% # Writes before turning the bus around for reads
system.mem_ctrls.wrPerTurnAround::68-71            19      0.06%     99.67% # Writes before turning the bus around for reads
system.mem_ctrls.wrPerTurnAround::72-75             9      0.03%     99.70% # Writes before turning the bus around for reads
system.mem_ctrls.wrPerTurnAround::76-79            12      0.04%     99.74% # Writes before turning the bus around for reads
system.mem_ctrls.wrPerTurnAround::80-83            18      0.06%     99.80% # Writes before turning the bus around for reads
system.mem_ctrls.wrPerTurnAround::84-87             9      0.03%     99.83% # Writes before turning the bus around for reads
system.mem_ctrls.wrPerTurnAround::88-91            12      0.04%     99.87% # Writes before turning the bus around for reads
system.mem_ctrls.wrPerTurnAround::92-95             7      0.02%     99.89% # Writes before turning the bus around for reads
system.mem_ctrls.wrPerTurnAround::96-99            18      0.06%     99.96% # Writes before turning the bus around for reads
system.mem_ctrls.wrPerTurnAround::100-103            4      0.01%     99.97% # Writes before turning the bus around for reads
system.mem_ctrls.wrPerTurnAround::104-107            2      0.01%     99.98% # Writes before turning the bus around for reads
system.mem_ctrls.wrPerTurnAround::108-111            1      0.00%     99.98% # Writes before turning the bus around for reads
system.mem_ctrls.wrPerTurnAround::112-115            1      0.00%     99.98% # Writes before turning the bus around for reads
system.mem_ctrls.wrPerTurnAround::124-127            1      0.00%     99.99% # Writes before turning the bus around for reads
system.mem_ctrls.wrPerTurnAround::132-135            1      0.00%     99.99% # Writes before turning the bus around for reads
system.mem_ctrls.wrPerTurnAround::136-139            2      0.01%    100.00% # Writes before turning the bus around for reads
system.mem_ctrls.wrPerTurnAround::140-143            1      0.00%    100.00% # Writes before turning the bus around for reads
system.mem_ctrls.wrPerTurnAround::total         29361                       # Writes before turning the bus around for reads
system.mem_ctrls.totQLat                  42345392500                       # Total ticks spent queuing
system.mem_ctrls.totMemAccLat            126338886250                       # Total ticks spent from burst creation until serviced by the DRAM
system.mem_ctrls.totBusLat                22398265000                       # Total ticks spent in databus transfers
system.mem_ctrls.avgQLat                      9452.83                       # Average queueing delay per DRAM burst
system.mem_ctrls.avgBusLat                    5000.00                       # Average bus latency per DRAM burst
system.mem_ctrls.avgMemAccLat                28202.83                       # Average memory access latency per DRAM burst
system.mem_ctrls.avgRdBW                        58.97                       # Average DRAM read bandwidth in MiByte/s
system.mem_ctrls.avgWrBW                         7.20                       # Average achieved write bandwidth in MiByte/s
system.mem_ctrls.avgRdBWSys                     59.49                       # Average system read bandwidth in MiByte/s
system.mem_ctrls.avgWrBWSys                      7.27                       # Average system write bandwidth in MiByte/s
system.mem_ctrls.peakBW                      12800.00                       # Theoretical peak bandwidth in MiByte/s
system.mem_ctrls.busUtil                         0.52                       # Data bus utilization in percentage
system.mem_ctrls.busUtilRead                     0.46                       # Data bus utilization in percentage for reads
system.mem_ctrls.busUtilWrite                    0.06                       # Data bus utilization in percentage for writes
system.mem_ctrls.avgRdQLen                       1.00                       # Average read queue length when enqueuing
system.mem_ctrls.avgWrQLen                      24.59                       # Average write queue length when enqueuing
system.mem_ctrls.readRowHits                  3151303                       # Number of row buffer hits during reads
system.mem_ctrls.writeRowHits                  353175                       # Number of row buffer hits during writes
system.mem_ctrls.readRowHitRate                 70.35                       # Row buffer hit rate for reads
system.mem_ctrls.writeRowHitRate                64.60                       # Row buffer hit rate for writes
system.mem_ctrls.avgGap                     958614.10                       # Average gap between requests
system.mem_ctrls.pageHitRate                    69.72                       # Row buffer hit rate, read and write combined
system.mem_ctrls.memoryStateTime::IDLE   2552639522750                       # Time in different power states
system.mem_ctrls.memoryStateTime::REF    162354920000                       # Time in different power states
system.mem_ctrls.memoryStateTime::PRE_PDN            0                       # Time in different power states
system.mem_ctrls.memoryStateTime::ACT    2147067353500                       # Time in different power states
system.mem_ctrls.memoryStateTime::ACT_PDN            0                       # Time in different power states
system.mem_ctrls.actEnergy::0              4744194840                       # Energy for activate commands per rank (pJ)
system.mem_ctrls.actEnergy::1              6761044080                       # Energy for activate commands per rank (pJ)
system.mem_ctrls.preEnergy::0              2588598375                       # Energy for precharge commands per rank (pJ)
system.mem_ctrls.preEnergy::1              3689061750                       # Energy for precharge commands per rank (pJ)
system.mem_ctrls.readEnergy::0            15636168600                       # Energy for read commands per rank (pJ)
system.mem_ctrls.readEnergy::1            19305109200                       # Energy for read commands per rank (pJ)
system.mem_ctrls.writeEnergy::0            1634366160                       # Energy for write commands per rank (pJ)
system.mem_ctrls.writeEnergy::1            1908139680                       # Energy for write commands per rank (pJ)
system.mem_ctrls.refreshEnergy::0        317566223520                       # Energy for refresh commands per rank (pJ)
system.mem_ctrls.refreshEnergy::1        317566223520                       # Energy for refresh commands per rank (pJ)
system.mem_ctrls.actBackEnergy::0        1087002150120                       # Energy for active background per rank (pJ)
system.mem_ctrls.actBackEnergy::1        1211691710385                       # Energy for active background per rank (pJ)
system.mem_ctrls.preBackEnergy::0        1963726411500                       # Energy for precharge background per rank (pJ)
system.mem_ctrls.preBackEnergy::1        1854349604250                       # Energy for precharge background per rank (pJ)
system.mem_ctrls.totalEnergy::0          3392898113115                       # Total energy per rank (pJ)
system.mem_ctrls.totalEnergy::1          3415270892865                       # Total energy per rank (pJ)
system.mem_ctrls.averagePower::0           697.831139                       # Core power per rank (mW)
system.mem_ctrls.averagePower::1           702.432640                       # Core power per rank (mW)
system.membus.trans_dist::ReadReq             4194338                       # Transaction distribution
system.membus.trans_dist::ReadResp            4194338                       # Transaction distribution
system.membus.trans_dist::WriteReq              12472                       # Transaction distribution
system.membus.trans_dist::WriteResp             12472                       # Transaction distribution
system.membus.trans_dist::Writeback            507947                       # Transaction distribution
system.membus.trans_dist::WriteInvalidateReq        44256                       # Transaction distribution
system.membus.trans_dist::WriteInvalidateResp        44256                       # Transaction distribution
system.membus.trans_dist::UpgradeReq               36                       # Transaction distribution
system.membus.trans_dist::UpgradeResp              36                       # Transaction distribution
system.membus.trans_dist::ReadExReq            332912                       # Transaction distribution
system.membus.trans_dist::ReadExResp           332912                       # Transaction distribution
system.membus.pkt_count_system.iocache.mem_side::system.mem_ctrls.port        88785                       # Packet count per connected master and slave (bytes)
system.membus.pkt_count_system.iocache.mem_side::total        88785                       # Packet count per connected master and slave (bytes)
system.membus.pkt_count_system.cpu.icache.mem_side::system.mem_ctrls.port      3160943                       # Packet count per connected master and slave (bytes)
system.membus.pkt_count_system.cpu.icache.mem_side::total      3160943                       # Packet count per connected master and slave (bytes)
system.membus.pkt_count_system.cpu.dcache.mem_side::system.bridge.slave        39486                       # Packet count per connected master and slave (bytes)
system.membus.pkt_count_system.cpu.dcache.mem_side::system.mem_ctrls.port      6386549                       # Packet count per connected master and slave (bytes)
system.membus.pkt_count_system.cpu.dcache.mem_side::total      6426035                       # Packet count per connected master and slave (bytes)
system.membus.pkt_count::total                9675763                       # Packet count per connected master and slave (bytes)
system.membus.pkt_size_system.iocache.mem_side::system.mem_ctrls.port      2836416                       # Cumulative packet size per connected master and slave (bytes)
system.membus.pkt_size_system.iocache.mem_side::total      2836416                       # Cumulative packet size per connected master and slave (bytes)
system.membus.pkt_size_system.cpu.icache.mem_side::system.mem_ctrls.port    101148096                       # Cumulative packet size per connected master and slave (bytes)
system.membus.pkt_size_system.cpu.icache.mem_side::total    101148096                       # Cumulative packet size per connected master and slave (bytes)
system.membus.pkt_size_system.cpu.dcache.mem_side::system.bridge.slave        63711                       # Cumulative packet size per connected master and slave (bytes)
system.membus.pkt_size_system.cpu.dcache.mem_side::system.mem_ctrls.port    220621568                       # Cumulative packet size per connected master and slave (bytes)
system.membus.pkt_size_system.cpu.dcache.mem_side::total    220685279                       # Cumulative packet size per connected master and slave (bytes)
system.membus.pkt_size::total               324669791                       # Cumulative packet size per connected master and slave (bytes)
system.membus.snoops                              212                       # Total snoops (count)
system.membus.snoop_fanout::samples           5072236                       # Request fanout histogram
system.membus.snoop_fanout::mean                    2                       # Request fanout histogram
system.membus.snoop_fanout::stdev                   0                       # Request fanout histogram
system.membus.snoop_fanout::underflows              0      0.00%      0.00% # Request fanout histogram
system.membus.snoop_fanout::0                       0      0.00%      0.00% # Request fanout histogram
system.membus.snoop_fanout::1                       0      0.00%      0.00% # Request fanout histogram
system.membus.snoop_fanout::2                 5072236    100.00%    100.00% # Request fanout histogram
system.membus.snoop_fanout::3                       0      0.00%    100.00% # Request fanout histogram
system.membus.snoop_fanout::overflows               0      0.00%    100.00% # Request fanout histogram
system.membus.snoop_fanout::min_value               2                       # Request fanout histogram
system.membus.snoop_fanout::max_value               2                       # Request fanout histogram
system.membus.snoop_fanout::total             5072236                       # Request fanout histogram
system.membus.reqLayer0.occupancy            32215000                       # Layer occupancy (ticks)
system.membus.reqLayer0.utilization               0.0                       # Layer utilization (%)
system.membus.reqLayer1.occupancy          9489866250                       # Layer occupancy (ticks)
system.membus.reqLayer1.utilization               0.2                       # Layer utilization (%)
system.membus.respLayer1.occupancy           46168984                       # Layer occupancy (ticks)
system.membus.respLayer1.utilization              0.0                       # Layer utilization (%)
system.membus.respLayer2.occupancy        14780295750                       # Layer occupancy (ticks)
system.membus.respLayer2.utilization              0.3                       # Layer utilization (%)
system.membus.respLayer3.occupancy        27408010214                       # Layer occupancy (ticks)
system.membus.respLayer3.utilization              0.6                       # Layer utilization (%)
system.iocache.tags.replacements                44450                       # number of replacements
system.iocache.tags.tagsinuse                1.485439                       # Cycle average of tags in use
system.iocache.tags.total_refs                      0                       # Total number of references to valid blocks.
system.iocache.tags.sampled_refs                44450                       # Sample count of references to valid blocks.
system.iocache.tags.avg_refs                        0                       # Average number of references to valid blocks.
system.iocache.tags.warmup_cycle         4410668758000                       # Cycle when the warmup percentage was hit.
system.iocache.tags.occ_blocks::tsunami.ide     1.485439                       # Average occupied blocks per requestor
system.iocache.tags.occ_percent::tsunami.ide     0.092840                       # Average percentage of cache occupancy
system.iocache.tags.occ_percent::total       0.092840                       # Average percentage of cache occupancy
system.iocache.tags.occ_task_id_blocks::1023           16                       # Occupied blocks per task id
system.iocache.tags.age_task_id_blocks_1023::4           16                       # Occupied blocks per task id
system.iocache.tags.occ_task_id_percent::1023            1                       # Percentage of cache occupancy per task id
system.iocache.tags.tag_accesses               400202                       # Number of tag accesses
system.iocache.tags.data_accesses              400202                       # Number of data accesses
system.iocache.WriteInvalidateReq_hits::tsunami.ide        44256                       # number of WriteInvalidateReq hits
system.iocache.WriteInvalidateReq_hits::total        44256                       # number of WriteInvalidateReq hits
system.iocache.ReadReq_misses::tsunami.ide          210                       # number of ReadReq misses
system.iocache.ReadReq_misses::total              210                       # number of ReadReq misses
system.iocache.WriteInvalidateReq_misses::tsunami.ide            1                       # number of WriteInvalidateReq misses
system.iocache.WriteInvalidateReq_misses::total            1                       # number of WriteInvalidateReq misses
system.iocache.demand_misses::tsunami.ide          210                       # number of demand (read+write) misses
system.iocache.demand_misses::total               210                       # number of demand (read+write) misses
system.iocache.overall_misses::tsunami.ide          210                       # number of overall misses
system.iocache.overall_misses::total              210                       # number of overall misses
system.iocache.ReadReq_miss_latency::tsunami.ide     33918354                       # number of ReadReq miss cycles
system.iocache.ReadReq_miss_latency::total     33918354                       # number of ReadReq miss cycles
system.iocache.demand_miss_latency::tsunami.ide     33918354                       # number of demand (read+write) miss cycles
system.iocache.demand_miss_latency::total     33918354                       # number of demand (read+write) miss cycles
system.iocache.overall_miss_latency::tsunami.ide     33918354                       # number of overall miss cycles
system.iocache.overall_miss_latency::total     33918354                       # number of overall miss cycles
system.iocache.ReadReq_accesses::tsunami.ide          210                       # number of ReadReq accesses(hits+misses)
system.iocache.ReadReq_accesses::total            210                       # number of ReadReq accesses(hits+misses)
system.iocache.WriteInvalidateReq_accesses::tsunami.ide        44257                       # number of WriteInvalidateReq accesses(hits+misses)
system.iocache.WriteInvalidateReq_accesses::total        44257                       # number of WriteInvalidateReq accesses(hits+misses)
system.iocache.demand_accesses::tsunami.ide          210                       # number of demand (read+write) accesses
system.iocache.demand_accesses::total             210                       # number of demand (read+write) accesses
system.iocache.overall_accesses::tsunami.ide          210                       # number of overall (read+write) accesses
system.iocache.overall_accesses::total            210                       # number of overall (read+write) accesses
system.iocache.ReadReq_miss_rate::tsunami.ide            1                       # miss rate for ReadReq accesses
system.iocache.ReadReq_miss_rate::total             1                       # miss rate for ReadReq accesses
system.iocache.WriteInvalidateReq_miss_rate::tsunami.ide     0.000023                       # miss rate for WriteInvalidateReq accesses
system.iocache.WriteInvalidateReq_miss_rate::total     0.000023                       # miss rate for WriteInvalidateReq accesses
system.iocache.demand_miss_rate::tsunami.ide            1                       # miss rate for demand accesses
system.iocache.demand_miss_rate::total              1                       # miss rate for demand accesses
system.iocache.overall_miss_rate::tsunami.ide            1                       # miss rate for overall accesses
system.iocache.overall_miss_rate::total             1                       # miss rate for overall accesses
system.iocache.ReadReq_avg_miss_latency::tsunami.ide 161515.971429                       # average ReadReq miss latency
system.iocache.ReadReq_avg_miss_latency::total 161515.971429                       # average ReadReq miss latency
system.iocache.demand_avg_miss_latency::tsunami.ide 161515.971429                       # average overall miss latency
system.iocache.demand_avg_miss_latency::total 161515.971429                       # average overall miss latency
system.iocache.overall_avg_miss_latency::tsunami.ide 161515.971429                       # average overall miss latency
system.iocache.overall_avg_miss_latency::total 161515.971429                       # average overall miss latency
system.iocache.blocked_cycles::no_mshrs           444                       # number of cycles access was blocked
system.iocache.blocked_cycles::no_targets            0                       # number of cycles access was blocked
system.iocache.blocked::no_mshrs                   45                       # number of cycles access was blocked
system.iocache.blocked::no_targets                  0                       # number of cycles access was blocked
system.iocache.avg_blocked_cycles::no_mshrs     9.866667                       # average number of cycles each access was blocked
system.iocache.avg_blocked_cycles::no_targets          nan                       # average number of cycles each access was blocked
system.iocache.fast_writes                      44256                       # number of fast writes performed
system.iocache.cache_copies                         0                       # number of cache copies performed
system.iocache.ReadReq_mshr_misses::tsunami.ide          210                       # number of ReadReq MSHR misses
system.iocache.ReadReq_mshr_misses::total          210                       # number of ReadReq MSHR misses
system.iocache.WriteInvalidateReq_mshr_misses::tsunami.ide        44256                       # number of WriteInvalidateReq MSHR misses
system.iocache.WriteInvalidateReq_mshr_misses::total        44256                       # number of WriteInvalidateReq MSHR misses
system.iocache.demand_mshr_misses::tsunami.ide          210                       # number of demand (read+write) MSHR misses
system.iocache.demand_mshr_misses::total          210                       # number of demand (read+write) MSHR misses
system.iocache.overall_mshr_misses::tsunami.ide          210                       # number of overall MSHR misses
system.iocache.overall_mshr_misses::total          210                       # number of overall MSHR misses
system.iocache.ReadReq_mshr_miss_latency::tsunami.ide     22996854                       # number of ReadReq MSHR miss cycles
system.iocache.ReadReq_mshr_miss_latency::total     22996854                       # number of ReadReq MSHR miss cycles
system.iocache.WriteInvalidateReq_mshr_miss_latency::tsunami.ide   2733784483                       # number of WriteInvalidateReq MSHR miss cycles
system.iocache.WriteInvalidateReq_mshr_miss_latency::total   2733784483                       # number of WriteInvalidateReq MSHR miss cycles
system.iocache.demand_mshr_miss_latency::tsunami.ide     22996854                       # number of demand (read+write) MSHR miss cycles
system.iocache.demand_mshr_miss_latency::total     22996854                       # number of demand (read+write) MSHR miss cycles
system.iocache.overall_mshr_miss_latency::tsunami.ide     22996854                       # number of overall MSHR miss cycles
system.iocache.overall_mshr_miss_latency::total     22996854                       # number of overall MSHR miss cycles
system.iocache.ReadReq_mshr_miss_rate::tsunami.ide            1                       # mshr miss rate for ReadReq accesses
system.iocache.ReadReq_mshr_miss_rate::total            1                       # mshr miss rate for ReadReq accesses
system.iocache.WriteInvalidateReq_mshr_miss_rate::tsunami.ide     0.999977                       # mshr miss rate for WriteInvalidateReq accesses
system.iocache.WriteInvalidateReq_mshr_miss_rate::total     0.999977                       # mshr miss rate for WriteInvalidateReq accesses
system.iocache.demand_mshr_miss_rate::tsunami.ide            1                       # mshr miss rate for demand accesses
system.iocache.demand_mshr_miss_rate::total            1                       # mshr miss rate for demand accesses
system.iocache.overall_mshr_miss_rate::tsunami.ide            1                       # mshr miss rate for overall accesses
system.iocache.overall_mshr_miss_rate::total            1                       # mshr miss rate for overall accesses
system.iocache.ReadReq_avg_mshr_miss_latency::tsunami.ide 109508.828571                       # average ReadReq mshr miss latency
system.iocache.ReadReq_avg_mshr_miss_latency::total 109508.828571                       # average ReadReq mshr miss latency
system.iocache.WriteInvalidateReq_avg_mshr_miss_latency::tsunami.ide 61772.064421                       # average WriteInvalidateReq mshr miss latency
system.iocache.WriteInvalidateReq_avg_mshr_miss_latency::total 61772.064421                       # average WriteInvalidateReq mshr miss latency
system.iocache.demand_avg_mshr_miss_latency::tsunami.ide 109508.828571                       # average overall mshr miss latency
system.iocache.demand_avg_mshr_miss_latency::total 109508.828571                       # average overall mshr miss latency
system.iocache.overall_avg_mshr_miss_latency::tsunami.ide 109508.828571                       # average overall mshr miss latency
system.iocache.overall_avg_mshr_miss_latency::total 109508.828571                       # average overall mshr miss latency
system.iocache.no_allocate_misses                   0                       # Number of misses that were no-allocate
system.disk0.dma_read_full_pages                    0                       # Number of full page size DMA reads (not PRD).
system.disk0.dma_read_bytes                      4096                       # Number of bytes transfered via DMA reads (not PRD).
system.disk0.dma_read_txs                           1                       # Number of DMA read transactions (not PRD).
system.disk0.dma_write_full_pages                 326                       # Number of full page size DMA writes.
system.disk0.dma_write_bytes                  2824192                       # Number of bytes transfered via DMA writes.
system.disk0.dma_write_txs                        365                       # Number of DMA write transactions.
system.disk2.dma_read_full_pages                    0                       # Number of full page size DMA reads (not PRD).
system.disk2.dma_read_bytes                         0                       # Number of bytes transfered via DMA reads (not PRD).
system.disk2.dma_read_txs                           0                       # Number of DMA read transactions (not PRD).
system.disk2.dma_write_full_pages                   1                       # Number of full page size DMA writes.
system.disk2.dma_write_bytes                     8192                       # Number of bytes transfered via DMA writes.
system.disk2.dma_write_txs                          1                       # Number of DMA write transactions.
system.cpu_voltage_domain.voltage                   1                       # Voltage in Volts
system.cpu_clk_domain.clock                     10000                       # Clock period in ticks
system.cpu.dtb.fetch_hits                           0                       # ITB hits
system.cpu.dtb.fetch_misses                         0                       # ITB misses
system.cpu.dtb.fetch_acv                            0                       # ITB acv
system.cpu.dtb.fetch_accesses                       0                       # ITB accesses
system.cpu.dtb.read_hits                     16798237                       # DTB read hits
system.cpu.dtb.read_misses                      12496                       # DTB read misses
system.cpu.dtb.read_acv                            98                       # DTB read access violations
system.cpu.dtb.read_accesses                   847809                       # DTB read accesses
system.cpu.dtb.write_hits                     8723187                       # DTB write hits
system.cpu.dtb.write_misses                      1323                       # DTB write misses
system.cpu.dtb.write_acv                          176                       # DTB write access violations
system.cpu.dtb.write_accesses                  339737                       # DTB write accesses
system.cpu.dtb.data_hits                     25521424                       # DTB hits
system.cpu.dtb.data_misses                      13819                       # DTB misses
system.cpu.dtb.data_acv                           274                       # DTB access violations
system.cpu.dtb.data_accesses                  1187546                       # DTB accesses
system.cpu.itb.fetch_hits                     6296031                       # ITB hits
system.cpu.itb.fetch_misses                      6205                       # ITB misses
system.cpu.itb.fetch_acv                            1                       # ITB acv
system.cpu.itb.fetch_accesses                 6302236                       # ITB accesses
system.cpu.itb.read_hits                            0                       # DTB read hits
system.cpu.itb.read_misses                          0                       # DTB read misses
system.cpu.itb.read_acv                             0                       # DTB read access violations
system.cpu.itb.read_accesses                        0                       # DTB read accesses
system.cpu.itb.write_hits                           0                       # DTB write hits
system.cpu.itb.write_misses                         0                       # DTB write misses
system.cpu.itb.write_acv                            0                       # DTB write access violations
system.cpu.itb.write_accesses                       0                       # DTB write accesses
system.cpu.itb.data_hits                            0                       # DTB hits
system.cpu.itb.data_misses                          0                       # DTB misses
system.cpu.itb.data_acv                             0                       # DTB access violations
system.cpu.itb.data_accesses                        0                       # DTB accesses
system.cpu.numCycles                        486206205                       # number of cpu cycles simulated
system.cpu.numWorkItemsStarted                      0                       # number of work items this cpu started
system.cpu.numWorkItemsCompleted                    0                       # number of work items this cpu completed
system.cpu.committedInsts                    94471680                       # Number of instructions committed
system.cpu.committedOps                      94471680                       # Number of ops (including micro ops) committed
system.cpu.num_int_alu_accesses              91364823                       # Number of integer alu accesses
system.cpu.num_fp_alu_accesses                 391353                       # Number of float alu accesses
system.cpu.num_func_calls                     2982442                       # number of times a function call or return occured
system.cpu.num_conditional_control_insts     11747856                       # number of instructions that are conditional controls
system.cpu.num_int_insts                     91364823                       # number of integer instructions
system.cpu.num_fp_insts                        391353                       # number of float instructions
system.cpu.num_int_register_reads           125530154                       # number of times the integer registers were read
system.cpu.num_int_register_writes           69676260                       # number of times the integer registers were written
system.cpu.num_fp_register_reads               176611                       # number of times the floating registers were read
system.cpu.num_fp_register_writes              179509                       # number of times the floating registers were written
system.cpu.num_mem_refs                      25582251                       # number of memory refs
system.cpu.num_load_insts                    16839529                       # Number of load instructions
system.cpu.num_store_insts                    8742722                       # Number of store instructions
system.cpu.num_idle_cycles               209214410.599957                       # Number of idle cycles
system.cpu.num_busy_cycles               276991794.400043                       # Number of busy cycles
system.cpu.not_idle_fraction                 0.569700                       # Percentage of non-idle cycles
system.cpu.idle_fraction                     0.430300                       # Percentage of idle cycles
system.cpu.Branches                          15421369                       # Number of branches fetched
system.cpu.op_class::No_OpClass               1611963      1.71%      1.71% # Class of executed instruction
system.cpu.op_class::IntAlu                  65272571     69.08%     70.79% # Class of executed instruction
system.cpu.op_class::IntMult                   171120      0.18%     70.97% # Class of executed instruction
system.cpu.op_class::IntDiv                         0      0.00%     70.97% # Class of executed instruction
system.cpu.op_class::FloatAdd                   84915      0.09%     71.06% # Class of executed instruction
system.cpu.op_class::FloatCmp                       0      0.00%     71.06% # Class of executed instruction
system.cpu.op_class::FloatCvt                       0      0.00%     71.06% # Class of executed instruction
system.cpu.op_class::FloatMult                      0      0.00%     71.06% # Class of executed instruction
system.cpu.op_class::FloatDiv                    4189      0.00%     71.06% # Class of executed instruction
system.cpu.op_class::FloatSqrt                      0      0.00%     71.06% # Class of executed instruction
system.cpu.op_class::SimdAdd                        0      0.00%     71.06% # Class of executed instruction
system.cpu.op_class::SimdAddAcc                     0      0.00%     71.06% # Class of executed instruction
system.cpu.op_class::SimdAlu                        0      0.00%     71.06% # Class of executed instruction
system.cpu.op_class::SimdCmp                        0      0.00%     71.06% # Class of executed instruction
system.cpu.op_class::SimdCvt                        0      0.00%     71.06% # Class of executed instruction
system.cpu.op_class::SimdMisc                       0      0.00%     71.06% # Class of executed instruction
system.cpu.op_class::SimdMult                       0      0.00%     71.06% # Class of executed instruction
system.cpu.op_class::SimdMultAcc                    0      0.00%     71.06% # Class of executed instruction
system.cpu.op_class::SimdShift                      0      0.00%     71.06% # Class of executed instruction
system.cpu.op_class::SimdShiftAcc                   0      0.00%     71.06% # Class of executed instruction
system.cpu.op_class::SimdSqrt                       0      0.00%     71.06% # Class of executed instruction
system.cpu.op_class::SimdFloatAdd                   0      0.00%     71.06% # Class of executed instruction
system.cpu.op_class::SimdFloatAlu                   0      0.00%     71.06% # Class of executed instruction
system.cpu.op_class::SimdFloatCmp                   0      0.00%     71.06% # Class of executed instruction
system.cpu.op_class::SimdFloatCvt                   0      0.00%     71.06% # Class of executed instruction
system.cpu.op_class::SimdFloatDiv                   0      0.00%     71.06% # Class of executed instruction
system.cpu.op_class::SimdFloatMisc                  0      0.00%     71.06% # Class of executed instruction
system.cpu.op_class::SimdFloatMult                  0      0.00%     71.06% # Class of executed instruction
system.cpu.op_class::SimdFloatMultAcc               0      0.00%     71.06% # Class of executed instruction
system.cpu.op_class::SimdFloatSqrt                  0      0.00%     71.06% # Class of executed instruction
system.cpu.op_class::MemRead                 17259489     18.27%     89.33% # Class of executed instruction
system.cpu.op_class::MemWrite                 8821720      9.34%     98.67% # Class of executed instruction
system.cpu.op_class::IprAccess                1259806      1.33%    100.00% # Class of executed instruction
system.cpu.op_class::InstPrefetch                   0      0.00%    100.00% # Class of executed instruction
system.cpu.op_class::total                   94485773                       # Class of executed instruction
system.cpu.kern.inst.arm                            0                       # number of arm instructions executed
system.cpu.kern.inst.quiesce                     7053                       # number of quiesce instructions executed
system.cpu.kern.inst.hwrei                     280707                       # number of hwrei instructions executed
system.cpu.kern.ipl_count::0                    90708     37.00%     37.00% # number of times we switched to this ipl
system.cpu.kern.ipl_count::21                     120      0.05%     37.05% # number of times we switched to this ipl
system.cpu.kern.ipl_count::22                    4624      1.89%     38.94% # number of times we switched to this ipl
system.cpu.kern.ipl_count::31                  149673     61.06%    100.00% # number of times we switched to this ipl
system.cpu.kern.ipl_count::total               245125                       # number of times we switched to this ipl
system.cpu.kern.ipl_good::0                     89171     48.70%     48.70% # number of times we switched to this ipl from a different ipl
system.cpu.kern.ipl_good::21                      120      0.07%     48.77% # number of times we switched to this ipl from a different ipl
system.cpu.kern.ipl_good::22                     4624      2.53%     51.30% # number of times we switched to this ipl from a different ipl
system.cpu.kern.ipl_good::31                    89171     48.70%    100.00% # number of times we switched to this ipl from a different ipl
system.cpu.kern.ipl_good::total                183086                       # number of times we switched to this ipl from a different ipl
system.cpu.kern.ipl_ticks::0             3878060910000     79.76%     79.76% # number of cycles we spent at this ipl
system.cpu.kern.ipl_ticks::21               620370000      0.01%     79.77% # number of cycles we spent at this ipl
system.cpu.kern.ipl_ticks::22             16155370000      0.33%     80.11% # number of cycles we spent at this ipl
system.cpu.kern.ipl_ticks::31            967211300000     19.89%    100.00% # number of cycles we spent at this ipl
system.cpu.kern.ipl_ticks::total         4862047950000                       # number of cycles we spent at this ipl
system.cpu.kern.ipl_used::0                  0.983056                       # fraction of swpipl calls that actually changed the ipl
system.cpu.kern.ipl_used::21                        1                       # fraction of swpipl calls that actually changed the ipl
system.cpu.kern.ipl_used::22                        1                       # fraction of swpipl calls that actually changed the ipl
system.cpu.kern.ipl_used::31                 0.595772                       # fraction of swpipl calls that actually changed the ipl
system.cpu.kern.ipl_used::total              0.746909                       # fraction of swpipl calls that actually changed the ipl
system.cpu.kern.syscall::2                          8      2.17%      2.17% # number of syscalls executed
system.cpu.kern.syscall::3                         33      8.94%     11.11% # number of syscalls executed
system.cpu.kern.syscall::4                          7      1.90%     13.01% # number of syscalls executed
system.cpu.kern.syscall::6                         45     12.20%     25.20% # number of syscalls executed
system.cpu.kern.syscall::12                         1      0.27%     25.47% # number of syscalls executed
system.cpu.kern.syscall::15                         1      0.27%     25.75% # number of syscalls executed
system.cpu.kern.syscall::17                        18      4.88%     30.62% # number of syscalls executed
system.cpu.kern.syscall::19                        11      2.98%     33.60% # number of syscalls executed
system.cpu.kern.syscall::20                         6      1.63%     35.23% # number of syscalls executed
system.cpu.kern.syscall::23                         4      1.08%     36.31% # number of syscalls executed
system.cpu.kern.syscall::24                         8      2.17%     38.48% # number of syscalls executed
system.cpu.kern.syscall::33                        12      3.25%     41.73% # number of syscalls executed
system.cpu.kern.syscall::41                         2      0.54%     42.28% # number of syscalls executed
system.cpu.kern.syscall::45                        62     16.80%     59.08% # number of syscalls executed
system.cpu.kern.syscall::47                         8      2.17%     61.25% # number of syscalls executed
system.cpu.kern.syscall::48                        10      2.71%     63.96% # number of syscalls executed
system.cpu.kern.syscall::54                        12      3.25%     67.21% # number of syscalls executed
system.cpu.kern.syscall::58                         2      0.54%     67.75% # number of syscalls executed
system.cpu.kern.syscall::59                         7      1.90%     69.65% # number of syscalls executed
system.cpu.kern.syscall::71                        63     17.07%     86.72% # number of syscalls executed
system.cpu.kern.syscall::73                         5      1.36%     88.08% # number of syscalls executed
system.cpu.kern.syscall::74                        18      4.88%     92.95% # number of syscalls executed
system.cpu.kern.syscall::87                         2      0.54%     93.50% # number of syscalls executed
system.cpu.kern.syscall::90                         3      0.81%     94.31% # number of syscalls executed
system.cpu.kern.syscall::92                         9      2.44%     96.75% # number of syscalls executed
system.cpu.kern.syscall::97                         2      0.54%     97.29% # number of syscalls executed
system.cpu.kern.syscall::98                         2      0.54%     97.83% # number of syscalls executed
system.cpu.kern.syscall::132                        4      1.08%     98.92% # number of syscalls executed
system.cpu.kern.syscall::144                        2      0.54%     99.46% # number of syscalls executed
system.cpu.kern.syscall::147                        2      0.54%    100.00% # number of syscalls executed
system.cpu.kern.syscall::total                    369                       # number of syscalls executed
system.cpu.kern.callpal::cserve                     1      0.00%      0.00% # number of callpals executed
system.cpu.kern.callpal::wrmces                     1      0.00%      0.00% # number of callpals executed
system.cpu.kern.callpal::wrfen                      1      0.00%      0.00% # number of callpals executed
system.cpu.kern.callpal::wrvptptr                   1      0.00%      0.00% # number of callpals executed
system.cpu.kern.callpal::swpctx                  4470      1.75%      1.75% # number of callpals executed
system.cpu.kern.callpal::tbi                       66      0.03%      1.78% # number of callpals executed
system.cpu.kern.callpal::wrent                      7      0.00%      1.78% # number of callpals executed
system.cpu.kern.callpal::swpipl                232140     90.80%     92.58% # number of callpals executed
system.cpu.kern.callpal::rdps                    9911      3.88%     96.45% # number of callpals executed
system.cpu.kern.callpal::wrkgp                      1      0.00%     96.46% # number of callpals executed
system.cpu.kern.callpal::wrusp                      8      0.00%     96.46% # number of callpals executed
system.cpu.kern.callpal::rdusp                     10      0.00%     96.46% # number of callpals executed
system.cpu.kern.callpal::whami                      2      0.00%     96.46% # number of callpals executed
system.cpu.kern.callpal::rti                     8240      3.22%     99.69% # number of callpals executed
system.cpu.kern.callpal::callsys                  564      0.22%     99.91% # number of callpals executed
system.cpu.kern.callpal::imb                      239      0.09%    100.00% # number of callpals executed
system.cpu.kern.callpal::total                 255662                       # number of callpals executed
system.cpu.kern.mode_switch::kernel              8930                       # number of protection mode switches
system.cpu.kern.mode_switch::user                2077                       # number of protection mode switches
system.cpu.kern.mode_switch::idle                2286                       # number of protection mode switches
system.cpu.kern.mode_good::kernel                2128                      
system.cpu.kern.mode_good::user                  2077                      
system.cpu.kern.mode_good::idle                    51                      
system.cpu.kern.mode_switch_good::kernel     0.238298                       # fraction of useful protection mode switches
system.cpu.kern.mode_switch_good::user              1                       # fraction of useful protection mode switches
system.cpu.kern.mode_switch_good::idle       0.022310                       # fraction of useful protection mode switches
system.cpu.kern.mode_switch_good::total      0.320169                       # fraction of useful protection mode switches
system.cpu.kern.mode_ticks::kernel       2038490610000     41.93%     41.93% # number of ticks spent at the given mode
system.cpu.kern.mode_ticks::user          97522510000      2.01%     43.93% # number of ticks spent at the given mode
system.cpu.kern.mode_ticks::idle         2726034790000     56.07%    100.00% # number of ticks spent at the given mode
system.cpu.kern.swap_context                     4471                       # number of times the context was actually changed
system.tsunami.ethernet.descDMAReads                0                       # Number of descriptors the device read w/ DMA
system.tsunami.ethernet.descDMAWrites               0                       # Number of descriptors the device wrote w/ DMA
system.tsunami.ethernet.descDmaReadBytes            0                       # number of descriptor bytes read w/ DMA
system.tsunami.ethernet.descDmaWriteBytes            0                       # number of descriptor bytes write w/ DMA
system.tsunami.ethernet.postedSwi                   0                       # number of software interrupts posted to CPU
system.tsunami.ethernet.coalescedSwi              nan                       # average number of Swi's coalesced into each post
system.tsunami.ethernet.totalSwi                    0                       # total number of Swi written to ISR
system.tsunami.ethernet.postedRxIdle                0                       # number of rxIdle interrupts posted to CPU
system.tsunami.ethernet.coalescedRxIdle           nan                       # average number of RxIdle's coalesced into each post
system.tsunami.ethernet.totalRxIdle                 0                       # total number of RxIdle written to ISR
system.tsunami.ethernet.postedRxOk                  0                       # number of RxOk interrupts posted to CPU
system.tsunami.ethernet.coalescedRxOk             nan                       # average number of RxOk's coalesced into each post
system.tsunami.ethernet.totalRxOk                   0                       # total number of RxOk written to ISR
system.tsunami.ethernet.postedRxDesc                0                       # number of RxDesc interrupts posted to CPU
system.tsunami.ethernet.coalescedRxDesc           nan                       # average number of RxDesc's coalesced into each post
system.tsunami.ethernet.totalRxDesc                 0                       # total number of RxDesc written to ISR
system.tsunami.ethernet.postedTxOk                  0                       # number of TxOk interrupts posted to CPU
system.tsunami.ethernet.coalescedTxOk             nan                       # average number of TxOk's coalesced into each post
system.tsunami.ethernet.totalTxOk                   0                       # total number of TxOk written to ISR
system.tsunami.ethernet.postedTxIdle                0                       # number of TxIdle interrupts posted to CPU
system.tsunami.ethernet.coalescedTxIdle           nan                       # average number of TxIdle's coalesced into each post
system.tsunami.ethernet.totalTxIdle                 0                       # total number of TxIdle written to ISR
system.tsunami.ethernet.postedTxDesc                0                       # number of TxDesc interrupts posted to CPU
system.tsunami.ethernet.coalescedTxDesc           nan                       # average number of TxDesc's coalesced into each post
system.tsunami.ethernet.totalTxDesc                 0                       # total number of TxDesc written to ISR
system.tsunami.ethernet.postedRxOrn                 0                       # number of RxOrn posted to CPU
system.tsunami.ethernet.coalescedRxOrn            nan                       # average number of RxOrn's coalesced into each post
system.tsunami.ethernet.totalRxOrn                  0                       # total number of RxOrn written to ISR
system.tsunami.ethernet.coalescedTotal            nan                       # average number of interrupts coalesced into each post
system.tsunami.ethernet.postedInterrupts            0                       # number of posts to CPU
system.tsunami.ethernet.droppedPackets              0                       # number of packets dropped
system.iobus.trans_dist::ReadReq                 7481                       # Transaction distribution
system.iobus.trans_dist::ReadResp                7481                       # Transaction distribution
system.iobus.trans_dist::WriteReq               56727                       # Transaction distribution
system.iobus.trans_dist::WriteResp              56728                       # Transaction distribution
system.iobus.trans_dist::WriteInvalidateReq            1                       # Transaction distribution
system.iobus.pkt_count_system.bridge.master::system.tsunami.cchip.pio         9898                       # Packet count per connected master and slave (bytes)
system.iobus.pkt_count_system.bridge.master::system.tsunami.pchip.pio          296                       # Packet count per connected master and slave (bytes)
system.iobus.pkt_count_system.bridge.master::system.tsunami.fake_sm_chip.pio           20                       # Packet count per connected master and slave (bytes)
system.iobus.pkt_count_system.bridge.master::system.tsunami.fake_uart4.pio           20                       # Packet count per connected master and slave (bytes)
system.iobus.pkt_count_system.bridge.master::system.tsunami.fake_ata0.pio           22                       # Packet count per connected master and slave (bytes)
system.iobus.pkt_count_system.bridge.master::system.tsunami.fake_ata1.pio           22                       # Packet count per connected master and slave (bytes)
system.iobus.pkt_count_system.bridge.master::system.tsunami.io.pio          256                       # Packet count per connected master and slave (bytes)
system.iobus.pkt_count_system.bridge.master::system.tsunami.uart.pio        20504                       # Packet count per connected master and slave (bytes)
system.iobus.pkt_count_system.bridge.master::system.tsunami.backdoor.pio         1904                       # Packet count per connected master and slave (bytes)
system.iobus.pkt_count_system.bridge.master::system.tsunami.ide.pio         5904                       # Packet count per connected master and slave (bytes)
system.iobus.pkt_count_system.bridge.master::system.tsunami.ide-pciconf          284                       # Packet count per connected master and slave (bytes)
system.iobus.pkt_count_system.bridge.master::system.tsunami.ethernet.pio          100                       # Packet count per connected master and slave (bytes)
system.iobus.pkt_count_system.bridge.master::system.tsunami.ethernet-pciconf          196                       # Packet count per connected master and slave (bytes)
[...]
system.cpu.icache.ReadReq_mshr_misses::total        10557                       # number of ReadReq MSHR misses
system.cpu.icache.demand_mshr_misses::cpu.inst        10557                       # number of demand (read+write) MSHR misses
system.cpu.icache.demand_mshr_misses::total        10557                       # number of demand (read+write) MSHR misses
system.cpu.icache.overall_mshr_misses::cpu.inst        10557                       # number of overall MSHR misses
system.cpu.icache.overall_mshr_misses::total        10557                       # number of overall MSHR misses
system.cpu.icache.ReadReq_mshr_miss_latency::cpu.inst    746509750                       # number of ReadReq MSHR miss cycles
system.cpu.icache.ReadReq_mshr_miss_latency::total    746509750                       # number of ReadReq MSHR miss cycles
system.cpu.icache.demand_mshr_miss_latency::cpu.inst    746509750                       # number of demand (read+write) MSHR miss cycles
system.cpu.icache.demand_mshr_miss_latency::total    746509750                       # number of demand (read+write) MSHR miss cycles
system.cpu.icache.overall_mshr_miss_latency::cpu.inst    746509750                       # number of overall MSHR miss cycles
system.cpu.icache.overall_mshr_miss_latency::total    746509750                       # number of overall MSHR miss cycles
system.cpu.icache.ReadReq_mshr_miss_rate::cpu.inst     0.012848                       # mshr miss rate for ReadReq accesses
system.cpu.icache.ReadReq_mshr_miss_rate::total     0.012848                       # mshr miss rate for ReadReq accesses
system.cpu.icache.demand_mshr_miss_rate::cpu.inst     0.012848                       # mshr miss rate for demand accesses
system.cpu.icache.demand_mshr_miss_rate::total     0.012848                       # mshr miss rate for demand accesses
system.cpu.icache.overall_mshr_miss_rate::cpu.inst     0.012848                       # mshr miss rate for overall accesses
system.cpu.icache.overall_mshr_miss_rate::total     0.012848                       # mshr miss rate for overall accesses
system.cpu.icache.ReadReq_avg_mshr_miss_latency::cpu.inst 70712.299896                       # average ReadReq mshr miss latency
system.cpu.icache.ReadReq_avg_mshr_miss_latency::total 70712.299896                       # average ReadReq mshr miss latency
system.cpu.icache.demand_avg_mshr_miss_latency::cpu.inst 70712.299896                       # average overall mshr miss latency
system.cpu.icache.demand_avg_mshr_miss_latency::total 70712.299896                       # average overall mshr miss latency
system.cpu.icache.overall_avg_mshr_miss_latency::cpu.inst 70712.299896                       # average overall mshr miss latency
system.cpu.icache.overall_avg_mshr_miss_latency::total 70712.299896                       # average overall mshr miss latency
system.cpu.icache.no_allocate_misses                0                       # Number of misses that were no-allocate
system.cpu.dcache.tags.replacements             17607                       # number of replacements
system.cpu.dcache.tags.tagsinuse                 1024                       # Cycle average of tags in use
system.cpu.dcache.tags.total_refs              311729                       # Total number of references to valid blocks.
system.cpu.dcache.tags.sampled_refs             18631                       # Sample count of references to valid blocks.
system.cpu.dcache.tags.avg_refs             16.731737                       # Average number of references to valid blocks.
system.cpu.dcache.tags.warmup_cycle                 0                       # Cycle when the warmup percentage was hit.
system.cpu.dcache.tags.occ_blocks::cpu.data         1024                       # Average occupied blocks per requestor
system.cpu.dcache.tags.occ_percent::cpu.data            1                       # Average percentage of cache occupancy
system.cpu.dcache.tags.occ_percent::total            1                       # Average percentage of cache occupancy
system.cpu.dcache.tags.occ_task_id_blocks::1024         1024                       # Occupied blocks per task id
system.cpu.dcache.tags.age_task_id_blocks_1024::0            7                       # Occupied blocks per task id
system.cpu.dcache.tags.age_task_id_blocks_1024::1           88                       # Occupied blocks per task id
system.cpu.dcache.tags.age_task_id_blocks_1024::2          704                       # Occupied blocks per task id
system.cpu.dcache.tags.age_task_id_blocks_1024::3          211                       # Occupied blocks per task id
system.cpu.dcache.tags.age_task_id_blocks_1024::4           14                       # Occupied blocks per task id
system.cpu.dcache.tags.occ_task_id_percent::1024            1                       # Percentage of cache occupancy per task id
system.cpu.dcache.tags.tag_accesses            605969                       # Number of tag accesses
system.cpu.dcache.tags.data_accesses           605969                       # Number of data accesses
system.cpu.dcache.ReadReq_hits::cpu.data       144361                       # number of ReadReq hits
system.cpu.dcache.ReadReq_hits::total          144361                       # number of ReadReq hits
system.cpu.dcache.WriteReq_hits::cpu.data       127195                       # number of WriteReq hits
system.cpu.dcache.WriteReq_hits::total         127195                       # number of WriteReq hits
system.cpu.dcache.LoadLockedReq_hits::cpu.data         2395                       # number of LoadLockedReq hits
system.cpu.dcache.LoadLockedReq_hits::total         2395                       # number of LoadLockedReq hits
system.cpu.dcache.StoreCondReq_hits::cpu.data         2622                       # number of StoreCondReq hits
system.cpu.dcache.StoreCondReq_hits::total         2622                       # number of StoreCondReq hits
system.cpu.dcache.demand_hits::cpu.data        271556                       # number of demand (read+write) hits
system.cpu.dcache.demand_hits::total           271556                       # number of demand (read+write) hits
system.cpu.dcache.overall_hits::cpu.data       271556                       # number of overall hits
system.cpu.dcache.overall_hits::total          271556                       # number of overall hits
system.cpu.dcache.ReadReq_misses::cpu.data         8342                       # number of ReadReq misses
system.cpu.dcache.ReadReq_misses::total          8342                       # number of ReadReq misses
system.cpu.dcache.WriteReq_misses::cpu.data         9032                       # number of WriteReq misses
system.cpu.dcache.WriteReq_misses::total         9032                       # number of WriteReq misses
system.cpu.dcache.LoadLockedReq_misses::cpu.data          234                       # number of LoadLockedReq misses
system.cpu.dcache.LoadLockedReq_misses::total          234                       # number of LoadLockedReq misses
system.cpu.dcache.demand_misses::cpu.data        17374                       # number of demand (read+write) misses
system.cpu.dcache.demand_misses::total          17374                       # number of demand (read+write) misses
system.cpu.dcache.overall_misses::cpu.data        17374                       # number of overall misses
system.cpu.dcache.overall_misses::total         17374                       # number of overall misses
system.cpu.dcache.ReadReq_miss_latency::cpu.data    810519750                       # number of ReadReq miss cycles
system.cpu.dcache.ReadReq_miss_latency::total    810519750                       # number of ReadReq miss cycles
system.cpu.dcache.WriteReq_miss_latency::cpu.data    852200249                       # number of WriteReq miss cycles
system.cpu.dcache.WriteReq_miss_latency::total    852200249                       # number of WriteReq miss cycles
system.cpu.dcache.LoadLockedReq_miss_latency::cpu.data     23514250                       # number of LoadLockedReq miss cycles
system.cpu.dcache.LoadLockedReq_miss_latency::total     23514250                       # number of LoadLockedReq miss cycles
system.cpu.dcache.demand_miss_latency::cpu.data   1662719999                       # number of demand (read+write) miss cycles
system.cpu.dcache.demand_miss_latency::total   1662719999                       # number of demand (read+write) miss cycles
system.cpu.dcache.overall_miss_latency::cpu.data   1662719999                       # number of overall miss cycles
system.cpu.dcache.overall_miss_latency::total   1662719999                       # number of overall miss cycles
system.cpu.dcache.ReadReq_accesses::cpu.data       152703                       # number of ReadReq accesses(hits+misses)
system.cpu.dcache.ReadReq_accesses::total       152703                       # number of ReadReq accesses(hits+misses)
system.cpu.dcache.WriteReq_accesses::cpu.data       136227                       # number of WriteReq accesses(hits+misses)
system.cpu.dcache.WriteReq_accesses::total       136227                       # number of WriteReq accesses(hits+misses)
system.cpu.dcache.LoadLockedReq_accesses::cpu.data         2629                       # number of LoadLockedReq accesses(hits+misses)
system.cpu.dcache.LoadLockedReq_accesses::total         2629                       # number of LoadLockedReq accesses(hits+misses)
system.cpu.dcache.StoreCondReq_accesses::cpu.data         2622                       # number of StoreCondReq accesses(hits+misses)
system.cpu.dcache.StoreCondReq_accesses::total         2622                       # number of StoreCondReq accesses(hits+misses)
system.cpu.dcache.demand_accesses::cpu.data       288930                       # number of demand (read+write) accesses
system.cpu.dcache.demand_accesses::total       288930                       # number of demand (read+write) accesses
system.cpu.dcache.overall_accesses::cpu.data       288930                       # number of overall (read+write) accesses
system.cpu.dcache.overall_accesses::total       288930                       # number of overall (read+write) accesses
system.cpu.dcache.ReadReq_miss_rate::cpu.data     0.054629                       # miss rate for ReadReq accesses
system.cpu.dcache.ReadReq_miss_rate::total     0.054629                       # miss rate for ReadReq accesses
system.cpu.dcache.WriteReq_miss_rate::cpu.data     0.066301                       # miss rate for WriteReq accesses
system.cpu.dcache.WriteReq_miss_rate::total     0.066301                       # miss rate for WriteReq accesses
system.cpu.dcache.LoadLockedReq_miss_rate::cpu.data     0.089007                       # miss rate for LoadLockedReq accesses
system.cpu.dcache.LoadLockedReq_miss_rate::total     0.089007                       # miss rate for LoadLockedReq accesses
system.cpu.dcache.demand_miss_rate::cpu.data     0.060132                       # miss rate for demand accesses
system.cpu.dcache.demand_miss_rate::total     0.060132                       # miss rate for demand accesses
system.cpu.dcache.overall_miss_rate::cpu.data     0.060132                       # miss rate for overall accesses
system.cpu.dcache.overall_miss_rate::total     0.060132                       # miss rate for overall accesses
system.cpu.dcache.ReadReq_avg_miss_latency::cpu.data 97161.322225                       # average ReadReq miss latency
system.cpu.dcache.ReadReq_avg_miss_latency::total 97161.322225                       # average ReadReq miss latency
system.cpu.dcache.WriteReq_avg_miss_latency::cpu.data 94353.437666                       # average WriteReq miss latency
system.cpu.dcache.WriteReq_avg_miss_latency::total 94353.437666                       # average WriteReq miss latency
system.cpu.dcache.LoadLockedReq_avg_miss_latency::cpu.data 100488.247863                       # average LoadLockedReq miss latency
system.cpu.dcache.LoadLockedReq_avg_miss_latency::total 100488.247863                       # average LoadLockedReq miss latency
system.cpu.dcache.demand_avg_miss_latency::cpu.data 95701.623057                       # average overall miss latency
system.cpu.dcache.demand_avg_miss_latency::total 95701.623057                       # average overall miss latency
system.cpu.dcache.overall_avg_miss_latency::cpu.data 95701.623057                       # average overall miss latency
system.cpu.dcache.overall_avg_miss_latency::total 95701.623057                       # average overall miss latency
system.cpu.dcache.blocked_cycles::no_mshrs            0                       # number of cycles access was blocked
system.cpu.dcache.blocked_cycles::no_targets            0                       # number of cycles access was blocked
system.cpu.dcache.blocked::no_mshrs                 0                       # number of cycles access was blocked
system.cpu.dcache.blocked::no_targets               0                       # number of cycles access was blocked
system.cpu.dcache.avg_blocked_cycles::no_mshrs          nan                       # average number of cycles each access was blocked
system.cpu.dcache.avg_blocked_cycles::no_targets          nan                       # average number of cycles each access was blocked
system.cpu.dcache.fast_writes                       0                       # number of fast writes performed
system.cpu.dcache.cache_copies                      0                       # number of cache copies performed
system.cpu.dcache.writebacks::writebacks        10644                       # number of writebacks
system.cpu.dcache.writebacks::total             10644                       # number of writebacks
system.cpu.dcache.ReadReq_mshr_misses::cpu.data         8342                       # number of ReadReq MSHR misses
system.cpu.dcache.ReadReq_mshr_misses::total         8342                       # number of ReadReq MSHR misses
system.cpu.dcache.WriteReq_mshr_misses::cpu.data         9032                       # number of WriteReq MSHR misses
system.cpu.dcache.WriteReq_mshr_misses::total         9032                       # number of WriteReq MSHR misses
system.cpu.dcache.LoadLockedReq_mshr_misses::cpu.data          234                       # number of LoadLockedReq MSHR misses
system.cpu.dcache.LoadLockedReq_mshr_misses::total          234                       # number of LoadLockedReq MSHR misses
system.cpu.dcache.demand_mshr_misses::cpu.data        17374                       # number of demand (read+write) MSHR misses
system.cpu.dcache.demand_mshr_misses::total        17374                       # number of demand (read+write) MSHR misses
system.cpu.dcache.overall_mshr_misses::cpu.data        17374                       # number of overall MSHR misses
system.cpu.dcache.overall_mshr_misses::total        17374                       # number of overall MSHR misses
system.cpu.dcache.ReadReq_mshr_miss_latency::cpu.data    588723250                       # number of ReadReq MSHR miss cycles
system.cpu.dcache.ReadReq_mshr_miss_latency::total    588723250                       # number of ReadReq MSHR miss cycles
system.cpu.dcache.WriteReq_mshr_miss_latency::cpu.data    634114751                       # number of WriteReq MSHR miss cycles
system.cpu.dcache.WriteReq_mshr_miss_latency::total    634114751                       # number of WriteReq MSHR miss cycles
system.cpu.dcache.LoadLockedReq_mshr_miss_latency::cpu.data     17163750                       # number of LoadLockedReq MSHR miss cycles
system.cpu.dcache.LoadLockedReq_mshr_miss_latency::total     17163750                       # number of LoadLockedReq MSHR miss cycles
system.cpu.dcache.demand_mshr_miss_latency::cpu.data   1222838001                       # number of demand (read+write) MSHR miss cycles
system.cpu.dcache.demand_mshr_miss_latency::total   1222838001                       # number of demand (read+write) MSHR miss cycles
system.cpu.dcache.overall_mshr_miss_latency::cpu.data   1222838001                       # number of overall MSHR miss cycles
system.cpu.dcache.overall_mshr_miss_latency::total   1222838001                       # number of overall MSHR miss cycles
system.cpu.dcache.WriteReq_mshr_uncacheable_latency::cpu.data      5500000                       # number of WriteReq MSHR uncacheable cycles
system.cpu.dcache.WriteReq_mshr_uncacheable_latency::total      5500000                       # number of WriteReq MSHR uncacheable cycles
system.cpu.dcache.overall_mshr_uncacheable_latency::cpu.data      5500000                       # number of overall MSHR uncacheable cycles
system.cpu.dcache.overall_mshr_uncacheable_latency::total      5500000                       # number of overall MSHR uncacheable cycles
system.cpu.dcache.ReadReq_mshr_miss_rate::cpu.data     0.054629                       # mshr miss rate for ReadReq accesses
system.cpu.dcache.ReadReq_mshr_miss_rate::total     0.054629                       # mshr miss rate for ReadReq accesses
system.cpu.dcache.WriteReq_mshr_miss_rate::cpu.data     0.066301                       # mshr miss rate for WriteReq accesses
system.cpu.dcache.WriteReq_mshr_miss_rate::total     0.066301                       # mshr miss rate for WriteReq accesses
system.cpu.dcache.LoadLockedReq_mshr_miss_rate::cpu.data     0.089007                       # mshr miss rate for LoadLockedReq accesses
system.cpu.dcache.LoadLockedReq_mshr_miss_rate::total     0.089007                       # mshr miss rate for LoadLockedReq accesses
system.cpu.dcache.demand_mshr_miss_rate::cpu.data     0.060132                       # mshr miss rate for demand accesses
system.cpu.dcache.demand_mshr_miss_rate::total     0.060132                       # mshr miss rate for demand accesses
system.cpu.dcache.overall_mshr_miss_rate::cpu.data     0.060132                       # mshr miss rate for overall accesses
system.cpu.dcache.overall_mshr_miss_rate::total     0.060132                       # mshr miss rate for overall accesses
system.cpu.dcache.ReadReq_avg_mshr_miss_latency::cpu.data 70573.393671                       # average ReadReq mshr miss latency
system.cpu.dcache.ReadReq_avg_mshr_miss_latency::total 70573.393671                       # average ReadReq mshr miss latency
system.cpu.dcache.WriteReq_avg_mshr_miss_latency::cpu.data 70207.567648                       # average WriteReq mshr miss latency
system.cpu.dcache.WriteReq_avg_mshr_miss_latency::total 70207.567648                       # average WriteReq mshr miss latency
system.cpu.dcache.LoadLockedReq_avg_mshr_miss_latency::cpu.data 73349.358974                       # average LoadLockedReq mshr miss latency
system.cpu.dcache.LoadLockedReq_avg_mshr_miss_latency::total 73349.358974                       # average LoadLockedReq mshr miss latency
system.cpu.dcache.demand_avg_mshr_miss_latency::cpu.data 70383.216358                       # average overall mshr miss latency
system.cpu.dcache.demand_avg_mshr_miss_latency::total 70383.216358                       # average overall mshr miss latency
system.cpu.dcache.overall_avg_mshr_miss_latency::cpu.data 70383.216358                       # average overall mshr miss latency
system.cpu.dcache.overall_avg_mshr_miss_latency::total 70383.216358                       # average overall mshr miss latency
system.cpu.dcache.WriteReq_avg_mshr_uncacheable_latency::cpu.data          inf                       # average WriteReq mshr uncacheable latency
system.cpu.dcache.WriteReq_avg_mshr_uncacheable_latency::total          inf                       # average WriteReq mshr uncacheable latency
system.cpu.dcache.overall_avg_mshr_uncacheable_latency::cpu.data          inf                       # average overall mshr uncacheable latency
system.cpu.dcache.overall_avg_mshr_uncacheable_latency::total          inf                       # average overall mshr uncacheable latency
system.cpu.dcache.no_allocate_misses                0                       # Number of misses that were no-allocate

---------- End Simulation Statistics   ----------
